*Heading
** Job name: GSL42015 Model name: GSL42015
** Generated by: Abaqus/CAE 2024
*Preprint, echo=NO, model=NO, history=NO, contact=NO
**
** PARTS
**
*Part, name=Facetrack
*Node
      1,          35.,         -77.,         525.
      2,         -35.,         -77.,         525.
      3,         -35.,         -77.,          75.
      4,          35.,         -77.,          75.
      5,         -35.,          77.,         525.
      6,         -35.,          77.,          75.
      7,          35.,          77.,         525.
      8,          35.,          77.,          75.
      9,         -35.,          77.,         600.
     10,          35.,          77.,         600.
     11,         -35.,         -77.,         600.
     12,         -35.,         -77.,           0.
     13,          35.,         -77.,           0.
     14,          35.,         -77.,         600.
     15,         -35.,          77.,           0.
     16,          35.,          77.,           0.
     17,          25.,         -77.,         525.
     18,          15.,         -77.,         525.
     19,           5.,         -77.,         525.
     20,          -5.,         -77.,         525.
** ... 1840 like lines cut
*Element, type=S4R
  1,   1,  17, 353, 116
  2,  17,  18, 354, 353
  3,  18,  19, 355, 354
  4,  19,  20, 356, 355
  5,  20,  21, 357, 356
  6,  21,  22, 358, 357
  7,  22,   2,  23, 358
  8, 116, 353, 359, 115
  9, 353, 354, 360, 359
 10, 354, 355, 361, 360
 11, 355, 356, 362, 361
 12, 356, 357, 363, 362
 13, 357, 358, 364, 363
 14, 358,  23,  24, 364
 15, 115, 359, 365, 114
 16, 359, 360, 366, 365
 17, 360, 361, 367, 366
 18, 361, 362, 368, 367
 19, 362, 363, 369, 368
 20, 363, 364, 370, 369
** ... 1749 like lines cut
*Nset, nset=Set_Whole, generate
    1,  1860,     1
*Elset, elset=Set_Whole, generate
    1,  1769,     1
*Elset, elset=_Surf_0_SPOS, internal, generate
 1594,  1713,     1
*Surface, type=ELEMENT, name=Surf_0
_Surf_0_SPOS, SPOS
*Elset, elset=_Surf_1_SPOS, internal, generate
 1362,  1481,     1
*Surface, type=ELEMENT, name=Surf_1
_Surf_1_SPOS, SPOS
*Elset, elset=_Surf_Middle_SPOS, internal
  316,  317,  318,  319,  320,  321,  322,  323,  324,  325,  326,  327,  328,  329,  330,  331
  332,  333,  334,  335,  336,  337,  338,  339,  340,  341,  342,  343,  344,  345,  346,  347
  348,  349,  350,  351,  352,  353,  354,  355,  356,  357,  358,  359,  360,  361,  362,  363
  364,  365,  366,  367,  368,  369,  370,  371,  372,  373,  374,  375,  376,  377,  378,  379
  380,  381,  382,  383,  384,  385,  386,  387,  388,  389,  390,  391,  392,  393,  394,  395
  396,  397,  398,  399,  400,  401,  402,  403,  404,  405,  406,  407,  408,  409,  410,  411
  412,  413,  414,  415,  416,  417,  418,  419,  420,  421,  422,  423,  424,  425,  426,  427
  428,  429,  430,  431,  432,  433,  434,  435,  436,  437,  438,  439,  440,  441,  442,  443
  444,  445,  446,  447,  448,  449,  450,  451,  452,  453,  454,  455,  456,  457,  458,  459
  460,  461,  462,  463,  464,  465,  466,  467,  468,  469,  470,  471,  472,  473,  474,  475
  476,  477,  478,  479,  480,  481,  482,  483,  484,  485,  486,  487,  488,  489,  490,  491
  492,  493,  494,  495,  496,  497,  498,  499,  500,  501,  502,  503,  504,  505,  506,  507
  508,  509,  510,  511,  512,  513,  514,  515,  516,  517,  518,  519,  520,  521,  522,  523
  524,  525,  526,  527,  528,  529,  530,  531,  532,  533,  534,  535,  536,  537,  538,  539
  540,  541,  542,  543,  544,  545,  546,  547,  548,  549,  550,  551,  552,  553,  554,  555
  556,  557,  558,  559,  560,  561,  562,  563,  564,  565,  566,  567,  568,  569,  570,  571
  572,  573,  574,  575,  576,  577,  578,  579,  580,  581,  582,  583,  584,  585,  586,  587
  588,  589,  590,  591,  592,  593,  594,  595,  596,  597,  598,  599,  600,  601,  602,  603
  604,  605,  606,  607,  608,  609,  610,  611,  612,  613,  614,  615,  616,  617,  618,  619
  620,  621,  622,  623,  624,  625,  626,  627,  628,  629,  630,  631,  632,  633,  634,  635
** ... 38 like lines cut
*Surface, type=ELEMENT, name=Surf_Middle
_Surf_Middle_SPOS, SPOS
** Section: Sec_Facetrack
*Shell Section, elset=Set_Whole, material=Mat_CFS_Facetrack, offset=SPOS
1.2, 7
*End Part
**  
*Part, name=Floorsheathing
*Node
      1,         120.,        -550.,           0.
      2,         120.,         550.,           0.
      3,        -120.,         550.,           0.
      4,        -120.,        -550.,           0.
      5,        -195.,         550.,           0.
      6,        -195.,        -550.,           0.
      7,         195.,        -550.,           0.
      8,         195.,         550.,           0.
      9,         120.,        -540.,           0.
     10,         120.,        -530.,           0.
     11,         120.,        -520.,           0.
     12,         120.,        -510.,           0.
     13,         120.,        -500.,           0.
     14,         120.,        -490.,           0.
     15,         120.,        -480.,           0.
     16,         120.,        -470.,           0.
     17,         120.,        -460.,           0.
     18,         120.,        -450.,           0.
     19,         120.,        -440.,           0.
     20,         120.,        -430.,           0.
** ... 4531 like lines cut
*Element, type=S4R
   1,    1,    9,  519,  272
   2,    9,   10,  520,  519
   3,   10,   11,  521,  520
   4,   11,   12,  522,  521
   5,   12,   13,  523,  522
   6,   13,   14,  524,  523
   7,   14,   15,  525,  524
   8,   15,   16,  526,  525
   9,   16,   17,  527,  526
  10,   17,   18,  528,  527
  11,   18,   19,  529,  528
  12,   19,   20,  530,  529
  13,   20,   21,  531,  530
  14,   21,   22,  532,  531
  15,   22,   23,  533,  532
  16,   23,   24,  534,  533
  17,   24,   25,  535,  534
  18,   25,   26,  536,  535
  19,   26,   27,  537,  536
  20,   27,   28,  538,  537
** ... 4380 like lines cut
*Nset, nset=Set_Whole, generate
    1,  4551,     1
*Elset, elset=Set_Whole, generate
    1,  4400,     1
*Elset, elset=_Surf_Bottom_1_SPOS, internal, generate
 2641,  3520,     1
*Surface, type=ELEMENT, name=Surf_Bottom_1
_Surf_Bottom_1_SPOS, SPOS
*Elset, elset=_Surf_Bottom_2_SPOS, internal, generate
 3521,  4400,     1
*Surface, type=ELEMENT, name=Surf_Bottom_2
_Surf_Bottom_2_SPOS, SPOS
** Section: Sec_Floorsheathing
*Shell Section, elset=Set_Whole, material=Mat_OSB, offset=SPOS
18., 7
*End Part
**  
*Part, name=Gear
*Node
      1,   18.6232986,   54.2000008,          30.
      2,   19.9167309,   52.2642441,          30.
      3,   19.9167309,   52.2642441,           0.
      4,   18.6232986,   54.2000008,           0.
      5,   15.4680767,   41.5242424,          30.
      6,   15.4680767,   41.5242424,           0.
      7,   16.4652309,   36.5112076,          30.
      8,   16.4652309,   36.5112076,           0.
      9,   36.5112076,   16.4652309,          30.
     10,   36.5112076,   16.4652309,           0.
     11,   41.5242424,   15.4680767,          30.
     12,   41.5242424,   15.4680767,           0.
     13,   52.2642441,   19.9167309,          30.
     14,   52.2642441,   19.9167309,           0.
     15,   54.2000008,   18.6232986,          30.
     16,   54.2000008,   18.6232986,           0.
     17,   54.2000008,  -18.6232986,          30.
     18,   54.2000008,  -18.6232986,           0.
     19,   52.2642441,  -19.9167309,          30.
     20,   52.2642441,  -19.9167309,           0.
** ... 3628 like lines cut
*Element, type=S4R
 1,   1,  65, 905,  96
 2,  65,  66, 906, 905
 3,  66,   2,  67, 906
 4,  96, 905, 907,  95
 5, 905, 906, 908, 907
 6, 906,  67,  68, 908
 7,  95, 907, 909,  94
 8, 907, 908, 910, 909
 9, 908,  68,  69, 910
10,  94, 909, 911,  93
11, 909, 910, 912, 911
12, 910,  69,  70, 912
13,  93, 911, 913,  92
14, 911, 912, 914, 913
15, 912,  70,  71, 914
16,  92, 913, 915,  91
17, 913, 914, 916, 915
18, 914,  71,  72, 916
19,  91, 915, 917,  90
20, 915, 916, 918, 917
** ... 3400 like lines cut
*Nset, nset=Set_Bottom_Edge
   3,   4,   6,   8,  10,  12,  14,  16,  18,  20,  22,  24,  26,  28,  30,  32
  34,  36,  38,  40,  42,  44,  46,  48,  50,  52,  54,  56,  58,  60,  62,  64
  81,  82, 116, 117, 118, 119, 120, 137, 138, 166, 167, 168, 169, 170, 171, 172
 173, 174, 175, 176, 177, 178, 195, 196, 216, 217, 218, 219, 220, 237, 238, 271
 272, 273, 274, 275, 276, 277, 278, 279, 280, 281, 282, 283, 284, 285, 286, 287
 288, 305, 306, 326, 327, 328, 329, 330, 347, 348, 376, 377, 378, 379, 380, 381
 382, 383, 384, 385, 386, 387, 388, 405, 406, 426, 427, 428, 429, 430, 447, 448
 481, 482, 483, 484, 485, 486, 487, 488, 489, 490, 491, 492, 493, 494, 495, 496
 497, 498, 515, 516, 536, 537, 538, 539, 540, 557, 558, 586, 587, 588, 589, 590
 591, 592, 593, 594, 595, 596, 597, 598, 615, 616, 636, 637, 638, 639, 640, 657
 658, 691, 692, 693, 694, 695, 696, 697, 698, 699, 700, 701, 702, 703, 704, 705
 706, 707, 708, 725, 726, 746, 747, 748, 749, 750, 767, 768, 796, 797, 798, 799
 800, 801, 802, 803, 804, 805, 806, 807, 808, 825, 826, 846, 847, 848, 849, 850
 867, 868, 887, 888, 889, 890, 891, 892, 893, 894, 895, 896, 897, 898, 899, 900
 901, 902, 903, 904
*Elset, elset=Set_Bottom_Edge
   43,   44,   45,  130,  131,  132,  133,  134,  135,  178,  179,  180,  377,  378,  379,  380
  381,  382,  383,  384,  385,  386,  387,  388,  389,  390,  433,  434,  435,  520,  521,  522
  523,  524,  525,  568,  569,  570,  837,  838,  839,  840,  841,  842,  843,  844,  845,  846
  847,  848,  849,  850,  851,  852,  853,  854,  855,  898,  899,  900,  985,  986,  987,  988
  989,  990, 1033, 1034, 1035, 1232, 1233, 1234, 1235, 1236, 1237, 1238, 1239, 1240, 1241, 1242
 1243, 1244, 1245, 1288, 1289, 1290, 1375, 1376, 1377, 1378, 1379, 1380, 1423, 1424, 1425, 1692
 1693, 1694, 1695, 1696, 1697, 1698, 1699, 1700, 1701, 1702, 1703, 1704, 1705, 1706, 1707, 1708
 1709, 1710, 1753, 1754, 1755, 1840, 1841, 1842, 1843, 1844, 1845, 1888, 1889, 1890, 2087, 2088
 2089, 2090, 2091, 2092, 2093, 2094, 2095, 2096, 2097, 2098, 2099, 2100, 2143, 2144, 2145, 2230
 2231, 2232, 2233, 2234, 2235, 2278, 2279, 2280, 2547, 2548, 2549, 2550, 2551, 2552, 2553, 2554
 2555, 2556, 2557, 2558, 2559, 2560, 2561, 2562, 2563, 2564, 2565, 2608, 2609, 2610, 2695, 2696
 2697, 2698, 2699, 2700, 2743, 2744, 2745, 2942, 2943, 2944, 2945, 2946, 2947, 2948, 2949, 2950
 2951, 2952, 2953, 2954, 2955, 2998, 2999, 3000, 3085, 3086, 3087, 3088, 3089, 3090, 3133, 3134
 3135, 3402, 3403, 3404, 3405, 3406, 3407, 3408, 3409, 3410, 3411, 3412, 3413, 3414, 3415, 3416
 3417, 3418, 3419, 3420
*Nset, nset=Set_Top_Edge
   1,   2,   5,   7,   9,  11,  13,  15,  17,  19,  21,  23,  25,  27,  29,  31
  33,  35,  37,  39,  41,  43,  45,  47,  49,  51,  53,  55,  57,  59,  61,  63
  65,  66,  97,  98,  99, 100, 101, 121, 122, 139, 140, 141, 142, 143, 144, 145
 146, 147, 148, 149, 150, 151, 179, 180, 197, 198, 199, 200, 201, 221, 222, 239
 240, 241, 242, 243, 244, 245, 246, 247, 248, 249, 250, 251, 252, 253, 254, 255
 256, 289, 290, 307, 308, 309, 310, 311, 331, 332, 349, 350, 351, 352, 353, 354
 355, 356, 357, 358, 359, 360, 361, 389, 390, 407, 408, 409, 410, 411, 431, 432
 449, 450, 451, 452, 453, 454, 455, 456, 457, 458, 459, 460, 461, 462, 463, 464
 465, 466, 499, 500, 517, 518, 519, 520, 521, 541, 542, 559, 560, 561, 562, 563
 564, 565, 566, 567, 568, 569, 570, 571, 599, 600, 617, 618, 619, 620, 621, 641
 642, 659, 660, 661, 662, 663, 664, 665, 666, 667, 668, 669, 670, 671, 672, 673
 674, 675, 676, 709, 710, 727, 728, 729, 730, 731, 751, 752, 769, 770, 771, 772
 773, 774, 775, 776, 777, 778, 779, 780, 781, 809, 810, 827, 828, 829, 830, 831
 851, 852, 869, 870, 871, 872, 873, 874, 875, 876, 877, 878, 879, 880, 881, 882
 883, 884, 885, 886
*Elset, elset=Set_Top_Edge
    1,    2,    3,   46,   47,   48,   49,   50,   51,  136,  137,  138,  181,  182,  183,  184
  185,  186,  187,  188,  189,  190,  191,  192,  193,  194,  391,  392,  393,  436,  437,  438
  439,  440,  441,  526,  527,  528,  571,  572,  573,  574,  575,  576,  577,  578,  579,  580
  581,  582,  583,  584,  585,  586,  587,  588,  589,  856,  857,  858,  901,  902,  903,  904
  905,  906,  991,  992,  993, 1036, 1037, 1038, 1039, 1040, 1041, 1042, 1043, 1044, 1045, 1046
 1047, 1048, 1049, 1246, 1247, 1248, 1291, 1292, 1293, 1294, 1295, 1296, 1381, 1382, 1383, 1426
 1427, 1428, 1429, 1430, 1431, 1432, 1433, 1434, 1435, 1436, 1437, 1438, 1439, 1440, 1441, 1442
 1443, 1444, 1711, 1712, 1713, 1756, 1757, 1758, 1759, 1760, 1761, 1846, 1847, 1848, 1891, 1892
 1893, 1894, 1895, 1896, 1897, 1898, 1899, 1900, 1901, 1902, 1903, 1904, 2101, 2102, 2103, 2146
 2147, 2148, 2149, 2150, 2151, 2236, 2237, 2238, 2281, 2282, 2283, 2284, 2285, 2286, 2287, 2288
 2289, 2290, 2291, 2292, 2293, 2294, 2295, 2296, 2297, 2298, 2299, 2566, 2567, 2568, 2611, 2612
 2613, 2614, 2615, 2616, 2701, 2702, 2703, 2746, 2747, 2748, 2749, 2750, 2751, 2752, 2753, 2754
 2755, 2756, 2757, 2758, 2759, 2956, 2957, 2958, 3001, 3002, 3003, 3004, 3005, 3006, 3091, 3092
 3093, 3136, 3137, 3138, 3139, 3140, 3141, 3142, 3143, 3144, 3145, 3146, 3147, 3148, 3149, 3150
 3151, 3152, 3153, 3154
*Nset, nset=Set_Whole, generate
    1,  3648,     1
*Elset, elset=Set_Whole, generate
    1,  3420,     1
*Elset, elset=_Surf_Outside_SPOS, internal, generate
    1,  3420,     1
*Surface, type=ELEMENT, name=Surf_Outside
_Surf_Outside_SPOS, SPOS
** Section: Sec_Gear
*Shell Section, elset=Set_Whole, material=Mat_LMD, offset=SPOS
1.1, 7
*End Part
**  
*Part, name=Joist
*Node
      1,         37.5,        -105.,        1250.
      2,         37.5,        -120.,        1250.
      3,         37.5,        -120.,         150.
      4,         37.5,        -105.,         150.
      5,        -37.5,        -120.,        1250.
      6,        -37.5,        -120.,         150.
      7,        -37.5,         120.,        1250.
      8,        -37.5,         120.,         150.
      9,         37.5,         120.,        1250.
     10,         37.5,         120.,         150.
     11,         37.5,         105.,        1250.
     12,         37.5,         105.,         150.
     13,         37.5,         120.,        1350.
     14,         37.5,         105.,        1350.
     15,        -37.5,         120.,        1350.
     16,        -37.5,        -120.,        1350.
     17,         37.5,        -120.,        1350.
     18,         37.5,        -120.,           0.
     19,         37.5,        -105.,           0.
     20,         37.5,        -105.,        1350.
** ... 6100 like lines cut
*Element, type=S4R
  1,    1,   25,  973,  244
  2,   25,    2,   26,  973
  3,  244,  973,  974,  243
  4,  973,   26,   27,  974
  5,  243,  974,  975,  242
  6,  974,   27,   28,  975
  7,  242,  975,  976,  241
  8,  975,   28,   29,  976
  9,  241,  976,  977,  240
 10,  976,   29,   30,  977
 11,  240,  977,  978,  239
 12,  977,   30,   31,  978
 13,  239,  978,  979,  238
 14,  978,   31,   32,  979
 15,  238,  979,  980,  237
 16,  979,   32,   33,  980
 17,  237,  980,  981,  236
 18,  980,   33,   34,  981
 19,  236,  981,  982,  235
 20,  981,   34,   35,  982
** ... 5920 like lines cut
*Nset, nset=Set_Top_Edge
  13,  14,  15,  16,  17,  20, 766, 785, 786, 787, 788, 789, 790, 791, 801, 802
 803, 804, 805, 806, 807, 808, 809, 810, 811, 812, 813, 814, 815, 816, 817, 818
 819, 820, 821, 822, 823, 833, 834, 835, 836, 837, 838, 839, 878
*Elset, elset=Set_Top_Edge
 4859, 4860, 4933, 4934, 4935, 4936, 4937, 4938, 4939, 4940, 5157, 5158, 5159, 5160, 5161, 5162
 5163, 5164, 5165, 5166, 5167, 5168, 5169, 5170, 5171, 5172, 5173, 5174, 5175, 5176, 5177, 5178
 5179, 5180, 5253, 5254, 5255, 5256, 5257, 5258, 5259, 5260, 5309, 5310
*Nset, nset=Set_Bottom_Edge
  18,  19,  21,  22,  23,  24, 854, 893, 894, 895, 896, 897, 898, 899, 914, 915
 916, 917, 918, 919, 920, 921, 922, 923, 924, 925, 926, 927, 928, 929, 930, 931
 932, 933, 934, 935, 936, 951, 952, 953, 954, 955, 956, 957, 972
*Elset, elset=Set_Bottom_Edge
 5289, 5290, 5423, 5424, 5425, 5426, 5427, 5428, 5429, 5430, 5767, 5768, 5769, 5770, 5771, 5772
 5773, 5774, 5775, 5776, 5777, 5778, 5779, 5780, 5781, 5782, 5783, 5784, 5785, 5786, 5787, 5788
 5789, 5790, 5903, 5904, 5905, 5906, 5907, 5908, 5909, 5910, 5939, 5940
*Nset, nset=Set_Load_Edge
   1,   2,   5,   7,   9,  11,  25, 245, 246, 247, 248, 249, 250, 251, 368, 369
 370, 371, 372, 373, 374, 375, 376, 377, 378, 379, 380, 381, 382, 383, 384, 385
 386, 387, 388, 389, 390, 523, 524, 525, 526, 527, 528, 529, 646
*Elset, elset=Set_Load_Edge
    1,    2,  221,  222,  223,  224,  225,  226,  227,  228, 1101, 1102, 1103, 1104, 1105, 1106
 1107, 1108, 1109, 1110, 1111, 1112, 1113, 1114, 1115, 1116, 1117, 1118, 1119, 1120, 1121, 1122
 1123, 1124, 3741, 3742, 3743, 3744, 3745, 3746, 3747, 3748, 4621, 4622, 4841, 4842, 4861, 4862
 4863, 4864, 4865, 4866, 4867, 4868, 4941, 4942, 4943, 4944, 4945, 4946, 4947, 4948, 4949, 4950
 4951, 4952, 4953, 4954, 4955, 4956, 4957, 4958, 4959, 4960, 4961, 4962, 4963, 4964, 5181, 5182
 5183, 5184, 5185, 5186, 5187, 5188, 5291, 5292
*Nset, nset=Set_Node_Corner_1
 18,
*Nset, nset=Set_Node_Corner_2
 23,
*Nset, nset=Set_Whole, generate
    1,  6120,     1
*Elset, elset=Set_Whole, generate
    1,  5940,     1
*Nset, nset=Set_Longitude_Edge_Top_1
   7, 391, 392, 393, 394, 395, 396, 397, 398, 399, 400, 401, 402, 403, 404, 405
 406, 407, 408, 409, 410, 411, 412, 413, 414, 415, 416, 417, 418, 419, 420, 421
 422, 423, 424, 425, 426, 427, 428, 429, 430, 431, 432, 433, 434, 435, 436, 437
 438, 439, 440, 441, 442, 443, 444, 445, 446, 447, 448, 449, 450, 451, 452, 453
 454, 455, 456, 457, 458, 459, 460, 461, 462, 463, 464, 465, 466, 467, 468, 469
 470, 471, 472, 473, 474, 475, 476, 477, 478, 479, 480, 481, 482, 483, 484, 485
 486, 487, 488, 489, 490, 491, 492, 493, 494, 495, 496, 497, 498, 499, 776, 777
 778, 779, 780, 781, 782, 783, 784
*Nset, nset=Set_Longitude_Edge_Top_2
   9, 530, 531, 532, 533, 534, 535, 536, 537, 538, 539, 540, 541, 542, 543, 544
 545, 546, 547, 548, 549, 550, 551, 552, 553, 554, 555, 556, 557, 558, 559, 560
 561, 562, 563, 564, 565, 566, 567, 568, 569, 570, 571, 572, 573, 574, 575, 576
 577, 578, 579, 580, 581, 582, 583, 584, 585, 586, 587, 588, 589, 590, 591, 592
 593, 594, 595, 596, 597, 598, 599, 600, 601, 602, 603, 604, 605, 606, 607, 608
 609, 610, 611, 612, 613, 614, 615, 616, 617, 618, 619, 620, 621, 622, 623, 624
 625, 626, 627, 628, 629, 630, 631, 632, 633, 634, 635, 636, 637, 638, 757, 758
 759, 760, 761, 762, 763, 764, 765
*Nset, nset=Set_Longitude_Edge_Bottom_1
   5, 252, 253, 254, 255, 256, 257, 258, 259, 260, 261, 262, 263, 264, 265, 266
 267, 268, 269, 270, 271, 272, 273, 274, 275, 276, 277, 278, 279, 280, 281, 282
 283, 284, 285, 286, 287, 288, 289, 290, 291, 292, 293, 294, 295, 296, 297, 298
 299, 300, 301, 302, 303, 304, 305, 306, 307, 308, 309, 310, 311, 312, 313, 314
 315, 316, 317, 318, 319, 320, 321, 322, 323, 324, 325, 326, 327, 328, 329, 330
 331, 332, 333, 334, 335, 336, 337, 338, 339, 340, 341, 342, 343, 344, 345, 346
 347, 348, 349, 350, 351, 352, 353, 354, 355, 356, 357, 358, 359, 360, 792, 793
 794, 795, 796, 797, 798, 799, 800
*Nset, nset=Set_Longitude_Edge_Bottom_2
   2,  26,  27,  28,  29,  30,  31,  32,  33,  34,  35,  36,  37,  38,  39,  40
  41,  42,  43,  44,  45,  46,  47,  48,  49,  50,  51,  52,  53,  54,  55,  56
  57,  58,  59,  60,  61,  62,  63,  64,  65,  66,  67,  68,  69,  70,  71,  72
  73,  74,  75,  76,  77,  78,  79,  80,  81,  82,  83,  84,  85,  86,  87,  88
  89,  90,  91,  92,  93,  94,  95,  96,  97,  98,  99, 100, 101, 102, 103, 104
 105, 106, 107, 108, 109, 110, 111, 112, 113, 114, 115, 116, 117, 118, 119, 120
 121, 122, 123, 124, 125, 126, 127, 128, 129, 130, 131, 132, 133, 134, 824, 825
 826, 827, 828, 829, 830, 831, 832
*Elset, elset=_Surf_0_SPOS, internal, generate
 5431,  5790,     1
*Surface, type=ELEMENT, name=Surf_0
_Surf_0_SPOS, SPOS
*Elset, elset=_Surf_Flange_1_SPOS, internal
  221,  222,  223,  224,  225,  226,  227,  228,  229,  230,  231,  232,  233,  234,  235,  236
  237,  238,  239,  240,  241,  242,  243,  244,  245,  246,  247,  248,  249,  250,  251,  252
  253,  254,  255,  256,  257,  258,  259,  260,  261,  262,  263,  264,  265,  266,  267,  268
  269,  270,  271,  272,  273,  274,  275,  276,  277,  278,  279,  280,  281,  282,  283,  284
  285,  286,  287,  288,  289,  290,  291,  292,  293,  294,  295,  296,  297,  298,  299,  300
  301,  302,  303,  304,  305,  306,  307,  308,  309,  310,  311,  312,  313,  314,  315,  316
  317,  318,  319,  320,  321,  322,  323,  324,  325,  326,  327,  328,  329,  330,  331,  332
  333,  334,  335,  336,  337,  338,  339,  340,  341,  342,  343,  344,  345,  346,  347,  348
  349,  350,  351,  352,  353,  354,  355,  356,  357,  358,  359,  360,  361,  362,  363,  364
  365,  366,  367,  368,  369,  370,  371,  372,  373,  374,  375,  376,  377,  378,  379,  380
  381,  382,  383,  384,  385,  386,  387,  388,  389,  390,  391,  392,  393,  394,  395,  396
  397,  398,  399,  400,  401,  402,  403,  404,  405,  406,  407,  408,  409,  410,  411,  412
  413,  414,  415,  416,  417,  418,  419,  420,  421,  422,  423,  424,  425,  426,  427,  428
  429,  430,  431,  432,  433,  434,  435,  436,  437,  438,  439,  440,  441,  442,  443,  444
  445,  446,  447,  448,  449,  450,  451,  452,  453,  454,  455,  456,  457,  458,  459,  460
  461,  462,  463,  464,  465,  466,  467,  468,  469,  470,  471,  472,  473,  474,  475,  476
  477,  478,  479,  480,  481,  482,  483,  484,  485,  486,  487,  488,  489,  490,  491,  492
  493,  494,  495,  496,  497,  498,  499,  500,  501,  502,  503,  504,  505,  506,  507,  508
  509,  510,  511,  512,  513,  514,  515,  516,  517,  518,  519,  520,  521,  522,  523,  524
  525,  526,  527,  528,  529,  530,  531,  532,  533,  534,  535,  536,  537,  538,  539,  540
** ... 48 like lines cut
*Surface, type=ELEMENT, name=Surf_Flange_1
_Surf_Flange_1_SPOS, SPOS
*Elset, elset=_Surf_Flange_2_SPOS, internal
 3741, 3742, 3743, 3744, 3745, 3746, 3747, 3748, 3749, 3750, 3751, 3752, 3753, 3754, 3755, 3756
 3757, 3758, 3759, 3760, 3761, 3762, 3763, 3764, 3765, 3766, 3767, 3768, 3769, 3770, 3771, 3772
 3773, 3774, 3775, 3776, 3777, 3778, 3779, 3780, 3781, 3782, 3783, 3784, 3785, 3786, 3787, 3788
 3789, 3790, 3791, 3792, 3793, 3794, 3795, 3796, 3797, 3798, 3799, 3800, 3801, 3802, 3803, 3804
 3805, 3806, 3807, 3808, 3809, 3810, 3811, 3812, 3813, 3814, 3815, 3816, 3817, 3818, 3819, 3820
 3821, 3822, 3823, 3824, 3825, 3826, 3827, 3828, 3829, 3830, 3831, 3832, 3833, 3834, 3835, 3836
 3837, 3838, 3839, 3840, 3841, 3842, 3843, 3844, 3845, 3846, 3847, 3848, 3849, 3850, 3851, 3852
 3853, 3854, 3855, 3856, 3857, 3858, 3859, 3860, 3861, 3862, 3863, 3864, 3865, 3866, 3867, 3868
 3869, 3870, 3871, 3872, 3873, 3874, 3875, 3876, 3877, 3878, 3879, 3880, 3881, 3882, 3883, 3884
 3885, 3886, 3887, 3888, 3889, 3890, 3891, 3892, 3893, 3894, 3895, 3896, 3897, 3898, 3899, 3900
 3901, 3902, 3903, 3904, 3905, 3906, 3907, 3908, 3909, 3910, 3911, 3912, 3913, 3914, 3915, 3916
 3917, 3918, 3919, 3920, 3921, 3922, 3923, 3924, 3925, 3926, 3927, 3928, 3929, 3930, 3931, 3932
 3933, 3934, 3935, 3936, 3937, 3938, 3939, 3940, 3941, 3942, 3943, 3944, 3945, 3946, 3947, 3948
 3949, 3950, 3951, 3952, 3953, 3954, 3955, 3956, 3957, 3958, 3959, 3960, 3961, 3962, 3963, 3964
 3965, 3966, 3967, 3968, 3969, 3970, 3971, 3972, 3973, 3974, 3975, 3976, 3977, 3978, 3979, 3980
 3981, 3982, 3983, 3984, 3985, 3986, 3987, 3988, 3989, 3990, 3991, 3992, 3993, 3994, 3995, 3996
 3997, 3998, 3999, 4000, 4001, 4002, 4003, 4004, 4005, 4006, 4007, 4008, 4009, 4010, 4011, 4012
 4013, 4014, 4015, 4016, 4017, 4018, 4019, 4020, 4021, 4022, 4023, 4024, 4025, 4026, 4027, 4028
 4029, 4030, 4031, 4032, 4033, 4034, 4035, 4036, 4037, 4038, 4039, 4040, 4041, 4042, 4043, 4044
 4045, 4046, 4047, 4048, 4049, 4050, 4051, 4052, 4053, 4054, 4055, 4056, 4057, 4058, 4059, 4060
** ... 48 like lines cut
*Surface, type=ELEMENT, name=Surf_Flange_2
_Surf_Flange_2_SPOS, SPOS
*Elset, elset=_Surf_1_SNEG, internal
 3694, 3695, 3696, 3697, 3698, 3699, 3700, 3701, 3702, 3703, 3704, 3705, 3706, 3707, 3708, 3709
 3710, 3711, 3712, 3713, 3714, 3715, 3718, 3719, 3720, 3721, 3722, 3723, 3724, 3725, 3726, 3727
 3728, 3729, 3730, 3731, 3732, 3733, 3734, 3735, 3736, 3737, 3738, 3739, 5432, 5433, 5434, 5435
 5436, 5437, 5438, 5439, 5440, 5441, 5442, 5443, 5444, 5445, 5446, 5447, 5448, 5449, 5450, 5451
 5452, 5453, 5456, 5457, 5458, 5459, 5460, 5461, 5462, 5463, 5464, 5465, 5466, 5467, 5468, 5469
 5470, 5471, 5472, 5473, 5474, 5475, 5476, 5477, 5480, 5481, 5482, 5483, 5484, 5485, 5486, 5487
 5488, 5489, 5490, 5491, 5492, 5493, 5494, 5495, 5496, 5497, 5498, 5499, 5500, 5501, 5504, 5505
 5506, 5507, 5508, 5509, 5510, 5511, 5512, 5513, 5514, 5515, 5516, 5517, 5518, 5519, 5520, 5521
 5522, 5523, 5524, 5525, 5528, 5529, 5530, 5531, 5532, 5533, 5534, 5535, 5536, 5537, 5538, 5539
 5540, 5541, 5542, 5543, 5544, 5545, 5546, 5547, 5548, 5549, 5552, 5553, 5554, 5555, 5556, 5557
 5558, 5559, 5560, 5561, 5562, 5563, 5564, 5565, 5566, 5567, 5568, 5569, 5570, 5571, 5572, 5573
 5576, 5577, 5578, 5579, 5580, 5581, 5582, 5583, 5584, 5585, 5586, 5587, 5588, 5589, 5590, 5591
 5592, 5593, 5594, 5595, 5596, 5597, 5600, 5601, 5602, 5603, 5604, 5605, 5606, 5607, 5608, 5609
 5610, 5611, 5612, 5613, 5614, 5615, 5616, 5617, 5618, 5619, 5620, 5621, 5624, 5625, 5626, 5627
 5628, 5629, 5630, 5631, 5632, 5633, 5634, 5635, 5636, 5637, 5638, 5639, 5640, 5641, 5642, 5643
 5644, 5645, 5648, 5649, 5650, 5651, 5652, 5653, 5654, 5655, 5656, 5657, 5658, 5659, 5660, 5661
 5662, 5663, 5664, 5665, 5666, 5667, 5668, 5669, 5672, 5673, 5674, 5675, 5676, 5677, 5678, 5679
 5680, 5681, 5682, 5683, 5684, 5685, 5686, 5687, 5688, 5689, 5690, 5691, 5692, 5693, 5696, 5697
 5698, 5699, 5700, 5701, 5702, 5703, 5704, 5705, 5706, 5707, 5708, 5709, 5710, 5711, 5712, 5713
 5714, 5715, 5716, 5717, 5720, 5721, 5722, 5723, 5724, 5725, 5726, 5727, 5728, 5729, 5730, 5731
 5732, 5733, 5734, 5735, 5736, 5737, 5738, 5739, 5740, 5741, 5744, 5745, 5746, 5747, 5748, 5749
 5750, 5751, 5752, 5753, 5754, 5755, 5756, 5757, 5758, 5759, 5760, 5761, 5762, 5763, 5764, 5765
*Surface, type=ELEMENT, name=Surf_1
_Surf_1_SNEG, SNEG
** Section: Sec_Joist
*Shell Section, elset=Set_Whole, material=Mat_CFS_Joist, offset=SPOS
1.25, 7
*End Part
**  
*Part, name=Stud
*Node
      1,         37.5,         -60.,         820.
      2,         37.5,         -75.,         820.
      3,         37.5,         -75.,         580.
      4,         37.5,         -60.,         580.
      5,        -37.5,         -75.,         820.
      6,        -37.5,         -75.,         580.
      7,        -37.5,          75.,         820.
      8,        -37.5,          75.,         580.
      9,         37.5,          75.,         820.
     10,         37.5,          75.,         580.
     11,         37.5,          60.,         820.
     12,         37.5,          60.,         580.
     13,         37.5,          75.,         830.
     14,         37.5,          60.,         830.
     15,        -37.5,          75.,         830.
     16,        -37.5,         -75.,         830.
     17,         37.5,         -75.,         830.
     18,         37.5,         -75.,           0.
     19,         37.5,         -60.,           0.
     20,         37.5,         -60.,         830.
** ... 3004 like lines cut
*Element, type=S4R
 1,   1,  25, 625,  72
 2,  25,   2,  26, 625
 3,  72, 625, 626,  71
 4, 625,  26,  27, 626
 5,  71, 626, 627,  70
 6, 626,  27,  28, 627
 7,  70, 627, 628,  69
 8, 627,  28,  29, 628
 9,  69, 628, 629,  68
10, 628,  29,  30, 629
11,  68, 629, 630,  67
12, 629,  30,  31, 630
13,  67, 630, 631,  66
14, 630,  31,  32, 631
15,  66, 631, 632,  65
16, 631,  32,  33, 632
17,  65, 632, 633,  64
18, 632,  33,  34, 633
19,  64, 633, 634,  63
20, 633,  34,  35, 634
** ... 2885 like lines cut
*Nset, nset=Set_Bottom_Edge
  18,  19,  21,  22,  23,  24, 309, 425, 426, 427, 428, 429, 430, 431, 489, 490
 491, 492, 493, 494, 495, 496, 497, 498, 499, 500, 501, 502, 560, 561, 562, 563
 564, 565, 566, 624
*Elset, elset=Set_Bottom_Edge
  988,  989, 1448, 1449, 1450, 1451, 1452, 1453, 1454, 1455, 2311, 2312, 2313, 2314, 2315, 2316
 2317, 2318, 2319, 2320, 2321, 2322, 2323, 2324, 2325, 2782, 2783, 2784, 2785, 2786, 2787, 2788
 2789, 2904, 2905
*Nset, nset=Set_Top_Edge
  13,  14,  15,  16,  17,  20, 223, 224, 225, 226, 227, 228, 229, 230, 231, 232
 233, 234, 235, 236, 237, 238, 239, 240, 241, 242, 243, 244, 245, 246, 247, 248
 249, 250, 251, 367
*Elset, elset=Set_Top_Edge
 841, 842, 843, 844, 845, 846, 847, 848, 849, 850, 851, 852, 853, 854, 855, 856
 857, 858, 859, 860, 861, 862, 863, 864, 865, 866, 867, 868, 869, 870, 871, 872
 873, 990, 991
*Nset, nset=Set_Whole, generate
    1,  3024,     1
*Elset, elset=Set_Whole, generate
    1,  2905,     1
*Elset, elset=_Surf_Middle_SPOS, internal, generate
 241,  600,    1
*Surface, type=ELEMENT, name=Surf_Middle
_Surf_Middle_SPOS, SPOS
*Elset, elset=_Surf_Flange_1_SPOS, internal, generate
  49,  240,    1
*Surface, type=ELEMENT, name=Surf_Flange_1
_Surf_Flange_1_SPOS, SPOS
*Elset, elset=_Surf_Flange_2_SPOS, internal, generate
 601,  792,    1
*Surface, type=ELEMENT, name=Surf_Flange_2
_Surf_Flange_2_SPOS, SPOS
** Section: Sec_Stud
*Shell Section, elset=Set_Whole, material=Mat_CFS_Stud, offset=SPOS
1.39, 7
*End Part
**  
*Part, name=Wheel
*Node
      1,   21.3949375,   51.6519508,          30.
      2,   16.9462852,   40.9119492,          30.
      3,   16.9462852,   40.9119492,           0.
      4,   21.3949375,   51.6519508,           0.
      5,   17.5966034,   37.6425781,          30.
      6,   17.5966034,   37.6425781,           0.
      7,   37.6425781,   17.5966034,          30.
      8,   37.6425781,   17.5966034,           0.
      9,   40.9119492,   16.9462852,          30.
     10,   40.9119492,   16.9462852,           0.
     11,   51.6519508,   21.3949375,          30.
     12,   51.6519508,   21.3949375,           0.
     13,   55.7999992,   18.6232986,          30.
     14,   55.7999992,   18.6232986,           0.
     15,   55.7999992,  -18.6232986,          30.
     16,   55.7999992,  -18.6232986,           0.
     17,   51.6519508,  -21.3949375,          30.
     18,   51.6519508,  -21.3949375,           0.
     19,   40.9119492,  -16.9462852,          30.
     20,   40.9119492,  -16.9462852,           0.
** ... 3500 like lines cut
*Element, type=S4R
 1,   1,  65, 889, 102
 2,  65,  66, 890, 889
 3,  66,  67, 891, 890
 4,  67,  68, 892, 891
 5,  68,  69, 893, 892
 6,  69,   2,  70, 893
 7, 102, 889, 894, 101
 8, 889, 890, 895, 894
 9, 890, 891, 896, 895
10, 891, 892, 897, 896
11, 892, 893, 898, 897
12, 893,  70,  71, 898
13, 101, 894, 899, 100
14, 894, 895, 900, 899
15, 895, 896, 901, 900
16, 896, 897, 902, 901
17, 897, 898, 903, 902
18, 898,  71,  72, 903
19, 100, 899, 904,  99
20, 899, 900, 905, 904
** ... 3280 like lines cut
*Nset, nset=Set_Bottom_Edge
   3,   4,   6,   8,  10,  12,  14,  16,  18,  20,  22,  24,  26,  28,  30,  32
  34,  36,  38,  40,  42,  44,  46,  48,  50,  52,  54,  56,  58,  60,  62,  64
  84,  85,  86,  87,  88, 118, 146, 147, 148, 149, 150, 151, 152, 153, 154, 155
 156, 157, 158, 174, 194, 195, 196, 197, 198, 215, 216, 249, 250, 251, 252, 253
 254, 255, 256, 257, 258, 259, 260, 261, 262, 263, 264, 265, 266, 283, 284, 304
 305, 306, 307, 308, 324, 352, 353, 354, 355, 356, 357, 358, 359, 360, 361, 362
 363, 364, 380, 400, 401, 402, 403, 404, 421, 422, 455, 456, 457, 458, 459, 460
 461, 462, 463, 464, 465, 466, 467, 468, 469, 470, 471, 472, 489, 490, 510, 511
 512, 513, 514, 530, 558, 559, 560, 561, 562, 563, 564, 565, 566, 567, 568, 569
 570, 586, 606, 607, 608, 609, 610, 627, 628, 661, 662, 663, 664, 665, 666, 667
 668, 669, 670, 671, 672, 673, 674, 675, 676, 677, 678, 695, 696, 716, 717, 718
 719, 720, 736, 764, 765, 766, 767, 768, 769, 770, 771, 772, 773, 774, 775, 776
 792, 812, 813, 814, 815, 816, 833, 834, 867, 868, 869, 870, 871, 872, 873, 874
 875, 876, 877, 878, 879, 880, 881, 882, 883, 884, 887, 888
*Elset, elset=Set_Bottom_Edge
   85,   86,   87,   88,   89,   90,  119,  120,  317,  318,  319,  320,  321,  322,  323,  324
  325,  326,  327,  328,  329,  330,  359,  360,  445,  446,  447,  448,  449,  450,  493,  494
  495,  762,  763,  764,  765,  766,  767,  768,  769,  770,  771,  772,  773,  774,  775,  776
  777,  778,  779,  780,  823,  824,  825,  910,  911,  912,  913,  914,  915,  944,  945, 1142
 1143, 1144, 1145, 1146, 1147, 1148, 1149, 1150, 1151, 1152, 1153, 1154, 1155, 1184, 1185, 1270
 1271, 1272, 1273, 1274, 1275, 1318, 1319, 1320, 1587, 1588, 1589, 1590, 1591, 1592, 1593, 1594
 1595, 1596, 1597, 1598, 1599, 1600, 1601, 1602, 1603, 1604, 1605, 1648, 1649, 1650, 1735, 1736
 1737, 1738, 1739, 1740, 1769, 1770, 1967, 1968, 1969, 1970, 1971, 1972, 1973, 1974, 1975, 1976
 1977, 1978, 1979, 1980, 2009, 2010, 2095, 2096, 2097, 2098, 2099, 2100, 2143, 2144, 2145, 2412
 2413, 2414, 2415, 2416, 2417, 2418, 2419, 2420, 2421, 2422, 2423, 2424, 2425, 2426, 2427, 2428
 2429, 2430, 2473, 2474, 2475, 2560, 2561, 2562, 2563, 2564, 2565, 2594, 2595, 2792, 2793, 2794
 2795, 2796, 2797, 2798, 2799, 2800, 2801, 2802, 2803, 2804, 2805, 2834, 2835, 2920, 2921, 2922
 2923, 2924, 2925, 2968, 2969, 2970, 3237, 3238, 3239, 3240, 3241, 3242, 3243, 3244, 3245, 3246
 3247, 3248, 3249, 3250, 3251, 3252, 3253, 3254, 3255, 3298, 3299, 3300
*Nset, nset=Set_Top_Edge
   1,   2,   5,   7,   9,  11,  13,  15,  17,  19,  21,  23,  25,  27,  29,  31
  33,  35,  37,  39,  41,  43,  45,  47,  49,  51,  53,  55,  57,  59,  61,  63
  65,  66,  67,  68,  69, 103, 119, 120, 121, 122, 123, 124, 125, 126, 127, 128
 129, 130, 131, 159, 175, 176, 177, 178, 179, 199, 200, 217, 218, 219, 220, 221
 222, 223, 224, 225, 226, 227, 228, 229, 230, 231, 232, 233, 234, 267, 268, 285
 286, 287, 288, 289, 309, 325, 326, 327, 328, 329, 330, 331, 332, 333, 334, 335
 336, 337, 365, 381, 382, 383, 384, 385, 405, 406, 423, 424, 425, 426, 427, 428
 429, 430, 431, 432, 433, 434, 435, 436, 437, 438, 439, 440, 473, 474, 491, 492
 493, 494, 495, 515, 531, 532, 533, 534, 535, 536, 537, 538, 539, 540, 541, 542
 543, 571, 587, 588, 589, 590, 591, 611, 612, 629, 630, 631, 632, 633, 634, 635
 636, 637, 638, 639, 640, 641, 642, 643, 644, 645, 646, 679, 680, 697, 698, 699
 700, 701, 721, 737, 738, 739, 740, 741, 742, 743, 744, 745, 746, 747, 748, 749
 777, 793, 794, 795, 796, 797, 817, 818, 835, 836, 837, 838, 839, 840, 841, 842
 843, 844, 845, 846, 847, 848, 849, 850, 851, 852, 885, 886
*Elset, elset=Set_Top_Edge
    1,    2,    3,    4,    5,    6,   91,   92,  121,  122,  123,  124,  125,  126,  127,  128
  129,  130,  131,  132,  133,  134,  331,  332,  361,  362,  363,  364,  365,  366,  451,  452
  453,  496,  497,  498,  499,  500,  501,  502,  503,  504,  505,  506,  507,  508,  509,  510
  511,  512,  513,  514,  781,  782,  783,  826,  827,  828,  829,  830,  831,  916,  917,  946
  947,  948,  949,  950,  951,  952,  953,  954,  955,  956,  957,  958,  959, 1156, 1157, 1186
 1187, 1188, 1189, 1190, 1191, 1276, 1277, 1278, 1321, 1322, 1323, 1324, 1325, 1326, 1327, 1328
 1329, 1330, 1331, 1332, 1333, 1334, 1335, 1336, 1337, 1338, 1339, 1606, 1607, 1608, 1651, 1652
 1653, 1654, 1655, 1656, 1741, 1742, 1771, 1772, 1773, 1774, 1775, 1776, 1777, 1778, 1779, 1780
 1781, 1782, 1783, 1784, 1981, 1982, 2011, 2012, 2013, 2014, 2015, 2016, 2101, 2102, 2103, 2146
 2147, 2148, 2149, 2150, 2151, 2152, 2153, 2154, 2155, 2156, 2157, 2158, 2159, 2160, 2161, 2162
 2163, 2164, 2431, 2432, 2433, 2476, 2477, 2478, 2479, 2480, 2481, 2566, 2567, 2596, 2597, 2598
 2599, 2600, 2601, 2602, 2603, 2604, 2605, 2606, 2607, 2608, 2609, 2806, 2807, 2836, 2837, 2838
 2839, 2840, 2841, 2926, 2927, 2928, 2971, 2972, 2973, 2974, 2975, 2976, 2977, 2978, 2979, 2980
 2981, 2982, 2983, 2984, 2985, 2986, 2987, 2988, 2989, 3256, 3257, 3258
*Nset, nset=Set_Whole, generate
    1,  3520,     1
*Elset, elset=Set_Whole, generate
    1,  3300,     1
*Elset, elset=_Surf_Inside_SNEG, internal, generate
    1,  3300,     1
*Surface, type=ELEMENT, name=Surf_Inside
_Surf_Inside_SNEG, SNEG
** Section: Sec_Wheel
*Shell Section, elset=Set_Whole, material=Mat_LMD, offset=SPOS
1.1, 7
*End Part
**  
**
** ASSEMBLY
**
*Assembly, name=Assembly
**  
*Instance, name=Stud_1, part=Stud
      -262.5,           0.,           0.
      -262.5,           0.,           0.,       -262.5, 0.707106790158355, 0.707106790158355,         180.
*End Instance
**  
*Instance, name=Stud_2, part=Stud
       262.5,           0.,           0.
       262.5,           0.,           0., 261.499999987312,           0.,           0., 89.9999992730282
*End Instance
**  
*Instance, name=Joist_1, part=Joist
      -157.5,         700.,         -75.
*End Instance
**  
*Instance, name=Joist_2, part=Joist
       157.5,         700.,         -75.
       157.5,         700.,         -75.,        157.5,         700.,         -74.,         180.
*End Instance
**  
*Instance, name=Facetrack_1, part=Facetrack
       -300.,         743.,        -110.
       -300.,         743.,        -110.,        -300., 744.000000012688,        -110., 89.9999992730282
*End Instance
**  
*Instance, name=Wheel_1, part=Wheel
       -195.,         700.,           0.
       -195.,         700.,           0.,        -195., 698.999999987312,           0., 89.9999992730282
*End Instance
**  
*Instance, name=Wheel_2, part=Wheel
        195.,         700.,           0.
        195.,         700.,           0., 195.707106790158,         700., 0.707106790158355,         180.
*End Instance
**  
*Instance, name=Gear_1, part=Gear
       -225.,         700.,           0.
       -225.,         700.,           0.,        -225., 701.000000012688,           0., 89.9999992730282
*End Instance
**  
*Instance, name=Gear_2, part=Gear
        225.,         700.,           0.
        225.,         700.,           0., 224.292893209842,         700., 0.707106790158355,         180.
*End Instance
**  
*Instance, name=Floorsheathing_1, part=Floorsheathing
          0.,         820.,         475.
          0.,         820.,         475., -4.32978043075079e-17, 819.292893209842, 475.707106790158,         180.
*End Instance
**  
*Node
      1,           0.,           0.,           0.
*Node
      2,           0.,         700.,        1175.
*Node
      3,           0.,         810.,        1175.
*Node
      4,        157.5,         820.,         975.
      5,        157.5,         820.,         725.
      6,        157.5,         820.,         475.
      7,        157.5,         820.,         225.
      8,        157.5,         820.,         -25.
      9,       -157.5,         820.,         975.
     10,       -157.5,         820.,         725.
     11,       -157.5,         820.,         475.
     12,       -157.5,         820.,         225.
     13,       -157.5,         820.,         -25.
     14,        262.5,         795.,         -75.
     15,        262.5,         691.,         -75.
     16,       -262.5,         795.,         -75.
     17,       -262.5,         691.,         -75.
*Element, type=CONN3D2
1, 3, 2
*Connector Section, elset=Wire_Swing_Link, behavior=ConnSect_Swing_Link
Axial,
Datum_csys_Swing_Link,
*Nset, nset=AttachmentPoints_Facetrack_Stud_1
 16, 17
*Nset, nset=AttachmentPoints_Facetrack_Stud_2
 14, 15
*Nset, nset=AttachmentPoints_Floorsheathing_1, generate
  9,  13,   1
*Nset, nset=AttachmentPoints_Floorsheathing_2, generate
 4,  8,  1
*Nset, nset=Joist_Top_Edge_1, instance=Joist_1
   1,   2,   5,   7,   9,  11,  25, 245, 246, 247, 248, 249, 250, 251, 368, 369
 370, 371, 372, 373, 374, 375, 376, 377, 378, 379, 380, 381, 382, 383, 384, 385
 386, 387, 388, 389, 390, 523, 524, 525, 526, 527, 528, 529, 646
*Nset, nset=Joist_Top_Edge_1, instance=Joist_2
   1,   2,   5,   7,   9,  11,  25, 245, 246, 247, 248, 249, 250, 251, 368, 369
 370, 371, 372, 373, 374, 375, 376, 377, 378, 379, 380, 381, 382, 383, 384, 385
 386, 387, 388, 389, 390, 523, 524, 525, 526, 527, 528, 529, 646
*Elset, elset=Joist_Top_Edge_1, instance=Joist_1
    1,    2,  221,  222,  223,  224,  225,  226,  227,  228, 1101, 1102, 1103, 1104, 1105, 1106
 1107, 1108, 1109, 1110, 1111, 1112, 1113, 1114, 1115, 1116, 1117, 1118, 1119, 1120, 1121, 1122
 1123, 1124, 3741, 3742, 3743, 3744, 3745, 3746, 3747, 3748, 4621, 4622, 4841, 4842, 4861, 4862
 4863, 4864, 4865, 4866, 4867, 4868, 4941, 4942, 4943, 4944, 4945, 4946, 4947, 4948, 4949, 4950
 4951, 4952, 4953, 4954, 4955, 4956, 4957, 4958, 4959, 4960, 4961, 4962, 4963, 4964, 5181, 5182
 5183, 5184, 5185, 5186, 5187, 5188, 5291, 5292
*Elset, elset=Joist_Top_Edge_1, instance=Joist_2
    1,    2,  221,  222,  223,  224,  225,  226,  227,  228, 1101, 1102, 1103, 1104, 1105, 1106
 1107, 1108, 1109, 1110, 1111, 1112, 1113, 1114, 1115, 1116, 1117, 1118, 1119, 1120, 1121, 1122
 1123, 1124, 3741, 3742, 3743, 3744, 3745, 3746, 3747, 3748, 4621, 4622, 4841, 4842, 4861, 4862
 4863, 4864, 4865, 4866, 4867, 4868, 4941, 4942, 4943, 4944, 4945, 4946, 4947, 4948, 4949, 4950
 4951, 4952, 4953, 4954, 4955, 4956, 4957, 4958, 4959, 4960, 4961, 4962, 4963, 4964, 5181, 5182
 5183, 5184, 5185, 5186, 5187, 5188, 5291, 5292
*Nset, nset=Set_RP_Base_1
 1,
*Nset, nset=Set_RP_Joist_End_1
 2,
*Nset, nset=Set_RP_swinglink_top
 3,
*Nset, nset=Stud_Bottom_Edge_1, instance=Stud_1
  18,  19,  21,  22,  23,  24, 309, 425, 426, 427, 428, 429, 430, 431, 489, 490
 491, 492, 493, 494, 495, 496, 497, 498, 499, 500, 501, 502, 560, 561, 562, 563
 564, 565, 566, 624
*Nset, nset=Stud_Bottom_Edge_1, instance=Stud_2
  18,  19,  21,  22,  23,  24, 309, 425, 426, 427, 428, 429, 430, 431, 489, 490
 491, 492, 493, 494, 495, 496, 497, 498, 499, 500, 501, 502, 560, 561, 562, 563
 564, 565, 566, 624
*Elset, elset=Stud_Bottom_Edge_1, instance=Stud_1
  988,  989, 1448, 1449, 1450, 1451, 1452, 1453, 1454, 1455, 2311, 2312, 2313, 2314, 2315, 2316
 2317, 2318, 2319, 2320, 2321, 2322, 2323, 2324, 2325, 2782, 2783, 2784, 2785, 2786, 2787, 2788
 2789, 2904, 2905
*Elset, elset=Stud_Bottom_Edge_1, instance=Stud_2
  988,  989, 1448, 1449, 1450, 1451, 1452, 1453, 1454, 1455, 2311, 2312, 2313, 2314, 2315, 2316
 2317, 2318, 2319, 2320, 2321, 2322, 2323, 2324, 2325, 2782, 2783, 2784, 2785, 2786, 2787, 2788
 2789, 2904, 2905
*Nset, nset=Wire_Swing_Link
 2, 3
*Elset, elset=Wire_Swing_Link
 1,
*Elset, elset=_Surf_Stud_Flanges_SPOS, internal, instance=Stud_1, generate
  49,  240,    1
*Elset, elset=_Surf_Stud_Flanges_SPOS, internal, instance=Stud_2, generate
 601,  792,    1
*Surface, type=ELEMENT, name=Surf_Stud_Flanges
_Surf_Stud_Flanges_SPOS, SPOS
*Surface, type=NODE, name=Gear_1_Set_Top_Edge_CNS_, internal
Gear_1.Set_Top_Edge, 1.
*Surface, type=NODE, name=Gear_2_Set_Top_Edge_CNS_, internal
Gear_2.Set_Top_Edge, 1.
*Surface, type=NODE, name=Wheel_1_Set_Top_Edge_CNS_, internal
Wheel_1.Set_Top_Edge, 1.
*Surface, type=NODE, name=Wheel_2_Set_Top_Edge_CNS_, internal
Wheel_2.Set_Top_Edge, 1.
*Surface, type=NODE, name=Stud_Bottom_Edge_1_CNS_, internal
Stud_Bottom_Edge_1, 1.
*Surface, type=NODE, name=Joist_Top_Edge_1_CNS_, internal
Joist_Top_Edge_1, 1.
*Surface, type=NODE, name=Gear_1_Set_Bottom_Edge_CNS_, internal
Gear_1.Set_Bottom_Edge, 1.
*Surface, type=NODE, name=Gear_2_Set_Bottom_Edge_CNS_, internal
Gear_2.Set_Bottom_Edge, 1.
*Surface, type=NODE, name=Wheel_1_Set_Bottom_Edge_CNS_, internal
Wheel_1.Set_Bottom_Edge, 1.
*Surface, type=NODE, name=Wheel_2_Set_Bottom_Edge_CNS_, internal
Wheel_2.Set_Bottom_Edge, 1.
*Orientation, name=Datum_csys_Swing_Link
          0.,           1.,           0.,          -1.,           0.,           0.
1, 0.
*Orientation, name=Datum_csys_Glob
          1.,           0.,           0.,           0.,           1.,           0.
1, 0.
*Orientation, name=Datum_csys_Floorsheathing
          1.,           0.,           0.,           0.,           0.,          -1.
1, 0.
*Orientation, name=Datum_csys_Facetrack
          1.,           0.,           0.,           0.,           1.,           0.
1, 0.
** Constraint: Coupling_Base_1
*Coupling, constraint name=Coupling_Base_1, ref node=Set_RP_Base_1, surface=Stud_Bottom_Edge_1_CNS_
*Kinematic
** Constraint: Joist_End_1
*Coupling, constraint name=Joist_End_1, ref node=Set_RP_Joist_End_1, surface=Joist_Top_Edge_1_CNS_
*Kinematic
** Constraint: Tie_Gear_1
*Tie, name=Tie_Gear_1, adjust=yes
Gear_1_Set_Bottom_Edge_CNS_, Stud_1.Surf_Middle
** Constraint: Tie_Gear_2
*Tie, name=Tie_Gear_2, adjust=yes
Gear_2_Set_Bottom_Edge_CNS_, Stud_2.Surf_Middle
** Constraint: Tie_Wheel_1
*Tie, name=Tie_Wheel_1, adjust=yes
Wheel_1_Set_Bottom_Edge_CNS_, Joist_1.Surf_0
** Constraint: Tie_Wheel_2
*Tie, name=Tie_Wheel_2, adjust=yes
Wheel_2_Set_Bottom_Edge_CNS_, Joist_2.Surf_0
** 
** POINT-BASED FASTENER: Fasteners_Floorsheathing_Joist_1
*Fastener Property, name=Fasteners_Floorsheathing_Joist_1
2.4
*Connector Section, elset=_Fasteners_Floorsheathing_Joist_1_pf_, behavior=ConnSect_OSB_Joist
Radial-Thrust,
Datum_csys_Glob,
*Fastener, interaction name=Fasteners_Floorsheathing_Joist_1, property=Fasteners_Floorsheathing_Joist_1, reference node set=AttachmentPoints_Floorsheathing_1, elset=_Fasteners_Floorsheathing_Joist_1_pf_, coupling=STRUCTURAL, attachment method=FACETOFACE, 
weighting method=UNIFORM, adjust orientation=NO, number of layers=1, orientation=Datum_csys_Floorsheathing

Joist_1.Surf_Flange_2, Floorsheathing_1.Surf_Bottom_2
** 
** POINT-BASED FASTENER: Fasteners_Floorsheathing_Joist_2
*Fastener Property, name=Fasteners_Floorsheathing_Joist_2
2.4
*Connector Section, elset=_Fasteners_Floorsheathing_Joist_2_pf_, behavior=ConnSect_OSB_Joist
Radial-Thrust,
Datum_csys_Glob,
*Fastener, interaction name=Fasteners_Floorsheathing_Joist_2, property=Fasteners_Floorsheathing_Joist_2, reference node set=AttachmentPoints_Floorsheathing_2, elset=_Fasteners_Floorsheathing_Joist_2_pf_, coupling=STRUCTURAL, attachment method=FACETOFACE, 
weighting method=UNIFORM, adjust orientation=NO, number of layers=1, orientation=Datum_csys_Floorsheathing

Joist_2.Surf_Flange_1, Floorsheathing_1.Surf_Bottom_1
** 
** POINT-BASED FASTENER: Fasteners_Stud_Facetrack_1
*Fastener Property, name=Fasteners_Stud_Facetrack_1
2.7
*Connector Section, elset=_Fasteners_Stud_Facetrack_1_pf_, behavior=ConnSect_Facetrack_Stud
Radial-Thrust,
Datum_csys_Glob,
*Fastener, interaction name=Fasteners_Stud_Facetrack_1, property=Fasteners_Stud_Facetrack_1, reference node set=AttachmentPoints_Facetrack_Stud_2, elset=_Fasteners_Stud_Facetrack_1_pf_, coupling=STRUCTURAL, attachment method=FACETOFACE, 
weighting method=UNIFORM, adjust orientation=NO, number of layers=1, orientation=Datum_csys_Facetrack

Stud_1.Surf_Flange_1, Facetrack_1.Surf_0
** 
** POINT-BASED FASTENER: Fasteners_Stud_Facetrack_2
*Fastener Property, name=Fasteners_Stud_Facetrack_2
2.7
*Connector Section, elset=_Fasteners_Stud_Facetrack_2_pf_, behavior=ConnSect_Facetrack_Stud
Radial-Thrust,
Datum_csys_Glob,
*Fastener, interaction name=Fasteners_Stud_Facetrack_2, property=Fasteners_Stud_Facetrack_2, reference node set=AttachmentPoints_Facetrack_Stud_2, elset=_Fasteners_Stud_Facetrack_2_pf_, coupling=STRUCTURAL, attachment method=FACETOFACE, 
weighting method=UNIFORM, adjust orientation=NO, number of layers=1, orientation=Datum_csys_Facetrack

Stud_2.Surf_Flange_2, Facetrack_1.Surf_1
*End Assembly
*Connector Behavior, name=ConnSect_Swing_Link
*Connector Elasticity, component=1
 195.873,
*Amplitude, name=Amp_1, definition=SMOOTH STEP
             0.,              0.,              1.,              1.
*Amplitude, name=Amp_Cyclic_Loads, definition=SMOOTH STEP
             0.,              0.,            0.25,            3.81,             0.5,              0.,            0.75,           -3.81
             1.,              0.,            1.25,            3.81,             1.5,              0.,            1.75,           -3.81
             2.,              0.,            2.25,             5.4,             2.5,              0.,            2.75,            -5.4
             3.,              0.,            3.25,             5.4,             3.5,              0.,            3.75,            -5.4
             4.,              0.,            4.25,            7.54,             4.5,              0.,            4.75,           -7.54
             5.,              0.,            5.25,            7.54,             5.5,              0.,            5.75,           -7.54
             6.,              0.,            6.25,           10.56,             6.5,              0.,            6.75,          -10.56
             7.,              0.,            7.25,           10.56,             7.5,              0.,            7.75,          -10.56
             8.,              0.,            8.25,           14.77,             8.5,              0.,            8.75,          -14.77
             9.,              0.,            9.25,           14.77,             9.5,              0.,            9.75,          -14.77
            10.,              0.,           10.25,           20.64,            10.5,              0.,           10.75,          -20.64
            11.,              0.,           11.25,           20.64,            11.5,              0.,           11.75,          -20.64
            12.,              0.,           12.25,            28.9,            12.5,              0.,           12.75,           -28.9
            13.,              0.,           13.25,            28.9,            13.5,              0.,           13.75,           -28.9
            14.,              0.,           14.25,           40.49,            14.5,              0.,           14.75,          -40.49
            15.,              0.,           15.25,           40.49,            15.5,              0.,           15.75,          -40.49
            16.,              0.,           16.25,           56.69,            16.5,              0.,           16.75,          -56.69
            17.,              0.,           17.25,           56.69,            17.5,              0.,           17.75,          -56.69
            18.,              0.,           18.25,            79.4,            18.5,              0.,           18.75,           -79.4
            19.,              0.,           19.25,            79.4,            19.5,              0.,           19.75,           -79.4
            20.,              0.,           20.25,           94.92,            20.5,              0.,           20.75,          -94.92
            21.,              0.,           21.25,           94.92,            21.5,              0.,           21.75,          -94.92
            22.,              0.
** 
** MATERIALS
** 
*Material, name=Mat_CFS_Facetrack
*Density
 7.85e-09,
*Elastic
210000., 0.33
*Plastic, hardening=COMBINED, number backstresses=1
  165.13,         0.
  200.19,   2.79e-06
  230.25,  1.031e-05
   250.3,  2.073e-05
  275.37,  4.463e-05
  305.47, 0.00010054
 350.687, 0.00029092
 365.783, 0.00040134
 401.089, 0.00080816
 441.664, 0.00167089
 483.264, 0.00447584
 501.308,  0.0102762
 523.592,  0.0238094
 553.175,  0.0496411
    594.,  0.0924816
*Material, name=Mat_CFS_Joist
*Density
 7.85e-09,
*Elastic
206486., 0.33
*Plastic, hardening=COMBINED, number backstresses=1
 180.859,          0.
 216.513, 1.49257e-05
 250.794, 4.32228e-05
 282.796, 7.23491e-05
 310.947, 9.92667e-05
 337.464, 0.000127139
  363.68, 0.000152197
 388.874, 0.000193237
 411.313, 0.000244784
 428.084, 0.000277835
 440.332,  0.00428554
 450.629,   0.0163549
 460.569,   0.0177997
 470.063,   0.0212219
 480.869,   0.0250334
 490.266,   0.0288936
 500.037,   0.0334542
 510.624,   0.0383959
 520.303,   0.0440849
 530.149,   0.0505497
** ... 8 like lines cut
*Material, name=Mat_CFS_Stud
*Density
 7.85e-09,
*Elastic
188001., 0.33
*Plastic, hardening=COMBINED, number backstresses=1
 132.063,          0.
 168.111, 7.67942e-06
 200.596, 1.43884e-05
  229.07, 2.50399e-05
 258.817, 5.06657e-05
 286.184, 0.000112781
 306.404, 0.000166827
 327.565, 0.000235869
 344.781,  0.00033777
 360.941, 0.000461995
 374.581, 0.000623634
 405.206,  0.00119472
 423.863,  0.00185135
   440.4,  0.00298523
 450.693,  0.00462405
 460.291,   0.0106317
 470.689,     0.01518
 480.402,   0.0190493
   490.7,   0.0228511
 500.425,   0.0270477
** ... 14 like lines cut
*Material, name=Mat_LMD
*Density
 7.85e-09,
*Elastic
143298., 0.33
*Plastic, hardening=COMBINED, number backstresses=1
 394.22,          0.
 396.03, 4.98765e-06
   400., 3.13032e-05
 405.03, 0.000152539
 410.04, 0.000615136
 415.03,  0.00209452
 420.05,   0.0045714
 430.06,  0.00990662
 440.02,   0.0154772
   450.,    0.021222
 460.05,   0.0271142
 470.01,   0.0330251
   480.,   0.0390055
 490.01,    0.045032
 500.03,   0.0515211
 510.06,   0.0585182
 520.01,   0.0653519
 530.05,    0.072138
   540.,   0.0787652
 550.05,   0.0853475
** ... 20 like lines cut
*Material, name=Mat_OSB
*Density
 6e-10,
*Elastic
3080., 0.2
*Concrete Damaged Plasticity
11.,    0.1,   1.16, 0.6667,     0.
*Concrete Compression Hardening
  8.6855,      0.
 8.81318,   5e-05
 8.93936,  0.0001
 9.18701,  0.0002
 9.42803,  0.0003
 9.66202,  0.0004
 9.88855,  0.0005
 10.1072,  0.0006
 10.5195,  0.0008
 10.8959,   0.001
 11.6636,  0.0015
 12.1625,   0.002
 12.3852,  0.0025
    12.4, 0.00267
 12.3466,   0.003
 12.0812,  0.0035
 11.6354,   0.004
 11.0598,  0.0045
 10.4026,   0.005
 9.93021, 0.00534
*Concrete Tension Stiffening
  3.4,          0.
   4., 0.000200198
   5., 0.000541466
   6., 0.000896915
   7.,  0.00127311
   8.,  0.00167794
   9.,  0.00212065
  10.,  0.00261183
 10.2,  0.00271691
** 
** INTERACTION PROPERTIES
** 
*Surface Interaction, name=IntProp_S
1.,
*Friction, slip tolerance=0.005
 0.2,
*Surface Behavior, penalty=NONLINEAR
5800., , , , , 
*Connector Behavior, name=ConnSect_OSB_Joist
*Connector Elasticity, component=1
1836.,
*Connector Plasticity, component=1
*Connector Hardening, definition=TABULAR
 300.,        0.,        0.
 350., 0.0294856,        0.
 400., 0.0601786,        0.
 450., 0.0923462,        0.
 500.,  0.126273,        0.
 550.,   0.16226,        0.
 600.,  0.200624,        0.
 700.,   0.28582,        0.
 800.,  0.384676,        0.
 900.,  0.500216,        0.
1000.,   0.63566,        0.
1100.,  0.794412,        0.
1200.,   1.00357,        0.
1300.,   1.26741,        0.
1400.,   1.58987,        0.
1500.,   1.98129,        0.
1600.,   2.45293,        0.
1700.,   3.01701,        0.
1800.,   3.68666,        0.
1900.,     4.476,        0.
2000.,   5.40011,        0.
2080.,   6.24717,        0.
*Connector Elasticity, component=3
18596.,
*Connector Plasticity, component=3
*Connector Hardening, definition=TABULAR
 700.,         0.,         0.
 750., 0.00285946,         0.
 800., 0.00582594,         0.
 900.,     0.0123,         0.
1000.,  0.0200774,         0.
1100.,  0.0302932,         0.
1200.,  0.0448106,         0.
1300.,  0.0665544,         0.
1400.,  0.0999504,         0.
1500.,   0.151486,         0.
1600.,   0.230419,         0.
1700.,   0.349651,         0.
1800.,   0.526797,         0.
*Connector Behavior, name=ConnSect_Facetrack_Stud
*Connector Elasticity, component=1
 9741.91,
*Connector Plasticity, component=1
*Connector Hardening, definition=TABULAR
 4594.58,      0.,      0.
 6474.71,  3.0652,      0.
 4851.14, 6.24317,      0.
  0.0001,     22.,      0.
*Connector Elasticity, component=3
525.,
*Connector Failure, component=3, release=3
, , , 1837.
** ----------------------------------------------------------------
** 
** IMPERFECTIONS: Imperfection_1  
** 
*Imperfection, input=GSL42015_imperfection.inp
** 
** BOUNDARY CONDITIONS
** 
** Name: BC_Base_1 Type: Displacement/Rotation
*Boundary
Set_RP_Base_1, 1, 1
Set_RP_Base_1, 2, 2
Set_RP_Base_1, 3, 3
Set_RP_Base_1, 4, 4
Set_RP_Base_1, 5, 5
Set_RP_Base_1, 6, 6
** Name: BC_Joist_End Type: Displacement/Rotation
*Boundary
Set_RP_Joist_End_1, 1, 1
Set_RP_Joist_End_1, 5, 5
Set_RP_Joist_End_1, 6, 6
** Name: BC_Swing_Link Type: Displacement/Rotation
*Boundary
Set_RP_swinglink_top, 1, 1
Set_RP_swinglink_top, 2, 2
Set_RP_swinglink_top, 3, 3
Set_RP_swinglink_top, 5, 5
Set_RP_swinglink_top, 6, 6
** 
** INTERACTIONS
** 
** Interaction: Int_Facetrack_Stud
*Contact Pair, interaction=IntProp_S, type=SURFACE TO SURFACE
Surf_Stud_Flanges, Facetrack_1.Surf_Middle
** Interaction: Int_Floorsheathing_Joist_1
*Contact Pair, interaction=IntProp_S, type=SURFACE TO SURFACE
Floorsheathing_1.Surf_Bottom_2, Joist_1.Surf_Flange_2
** Interaction: Int_Floorsheathing_Joist_2
*Contact Pair, interaction=IntProp_S, type=SURFACE TO SURFACE
Floorsheathing_1.Surf_Bottom_1, Joist_2.Surf_Flange_1
** Interaction: Int_Gear_Joist_1
*Contact Pair, interaction=IntProp_S, type=SURFACE TO SURFACE
Gear_1_Set_Top_Edge_CNS_, Joist_1.Surf_0
** Interaction: Int_Gear_Joist_2
*Contact Pair, interaction=IntProp_S, type=SURFACE TO SURFACE
Gear_2_Set_Top_Edge_CNS_, Joist_2.Surf_0
** Interaction: Int_Wheel_Gear_1
*Contact Pair, interaction=IntProp_S, type=SURFACE TO SURFACE
Gear_1.Surf_Outside, Wheel_1.Surf_Inside
** Interaction: Int_Wheel_Gear_2
*Contact Pair, interaction=IntProp_S, type=SURFACE TO SURFACE
Gear_2.Surf_Outside, Wheel_2.Surf_Inside
** Interaction: Int_Wheel_Stud_1
*Contact Pair, interaction=IntProp_S, type=SURFACE TO SURFACE
Wheel_1_Set_Top_Edge_CNS_, Stud_1.Surf_Middle
** Interaction: Int_Wheel_Stud_2
*Contact Pair, interaction=IntProp_S, type=SURFACE TO SURFACE
Wheel_2_Set_Top_Edge_CNS_, Stud_2.Surf_Middle
** ----------------------------------------------------------------
** 
** STEP: Step_Applied_Gravity
** 
*Step, name=Step_Applied_Gravity, nlgeom=YES, inc=100000
*Dynamic,application=QUASI-STATIC,initial=NO
0.075,1.,1e-06
** 
** LOADS
** 
** Name: Load_Gravity   Type: Gravity
*Dload, amplitude=Amp_1
, GRAV, 9810., 0., -1., 0.
** 
** OUTPUT REQUESTS
** 
*Restart, write, frequency=0
** 
** FIELD OUTPUT: F-Output-1
** 
*Output, field, frequency=1
*Node Output
U, 
*Element Output, directions=YES
PEEQ, S
** 
** HISTORY OUTPUT: H_Output_Joist_End
** 
*Output, history, frequency=1
*Node Output, nset=Set_RP_swinglink_top
RF2, U2
*End Step
** ----------------------------------------------------------------
** 
** STEP: Step_Load
** 
*Step, name=Step_Load, nlgeom=YES, inc=100000
*Dynamic,application=QUASI-STATIC,initial=NO
0.1,22.,1e-06,0.2
** 
** BOUNDARY CONDITIONS
** 
** Name: BC_Swing_Link Type: Displacement/Rotation
*Boundary, amplitude=Amp_Cyclic_Loads
Set_RP_swinglink_top, 1, 1
Set_RP_swinglink_top, 2, 2, 1.
Set_RP_swinglink_top, 3, 3
Set_RP_swinglink_top, 5, 5
Set_RP_swinglink_top, 6, 6
** 
** OUTPUT REQUESTS
** 
*Restart, write, frequency=0
** 
** FIELD OUTPUT: F-Output-1
** 
*Output, field, frequency=1
*Node Output
U, 
*Element Output, directions=YES
PEEQ, S
** 
** HISTORY OUTPUT: H_Output_Joist_End
** 
*Output, history, frequency=1
*Node Output, nset=Set_RP_swinglink_top
RF2, U2
*End Step
