*Heading
** Job name: KSW42033 Model name: KSW42033
** Generated by: Abaqus/CAE 2024
*Preprint, echo=NO, model=NO, history=NO, contact=NO
**
** PARTS
**
*Part, name=Facetrack
*Node
      1,          35.,         -77.,         525.
      2,         -35.,         -77.,         525.
      3,         -35.,         -77.,          75.
      4,          35.,         -77.,          75.
      5,         -35.,          77.,         525.
      6,         -35.,          77.,          75.
      7,          35.,          77.,         525.
      8,          35.,          77.,          75.
      9,         -35.,          77.,         600.
     10,          35.,          77.,         600.
     11,         -35.,         -77.,         600.
     12,         -35.,         -77.,           0.
     13,          35.,         -77.,           0.
     14,          35.,         -77.,         600.
     15,         -35.,          77.,           0.
     16,          35.,          77.,           0.
     17,          25.,         -77.,         525.
     18,          15.,         -77.,         525.
     19,           5.,         -77.,         525.
     20,          -5.,         -77.,         525.
** ... 1840 like lines cut
*Element, type=S4R
  1,   1,  17, 353, 116
  2,  17,  18, 354, 353
  3,  18,  19, 355, 354
  4,  19,  20, 356, 355
  5,  20,  21, 357, 356
  6,  21,  22, 358, 357
  7,  22,   2,  23, 358
  8, 116, 353, 359, 115
  9, 353, 354, 360, 359
 10, 354, 355, 361, 360
 11, 355, 356, 362, 361
 12, 356, 357, 363, 362
 13, 357, 358, 364, 363
 14, 358,  23,  24, 364
 15, 115, 359, 365, 114
 16, 359, 360, 366, 365
 17, 360, 361, 367, 366
 18, 361, 362, 368, 367
 19, 362, 363, 369, 368
 20, 363, 364, 370, 369
** ... 1749 like lines cut
*Nset, nset=Set_Whole, generate
    1,  1860,     1
*Elset, elset=Set_Whole, generate
    1,  1769,     1
*Elset, elset=_Surf_0_SPOS, internal, generate
 1594,  1713,     1
*Surface, type=ELEMENT, name=Surf_0
_Surf_0_SPOS, SPOS
*Elset, elset=_Surf_1_SPOS, internal, generate
 1362,  1481,     1
*Surface, type=ELEMENT, name=Surf_1
_Surf_1_SPOS, SPOS
*Elset, elset=_Surf_Middle_SPOS, internal
  316,  317,  318,  319,  320,  321,  322,  323,  324,  325,  326,  327,  328,  329,  330,  331
  332,  333,  334,  335,  336,  337,  338,  339,  340,  341,  342,  343,  344,  345,  346,  347
  348,  349,  350,  351,  352,  353,  354,  355,  356,  357,  358,  359,  360,  361,  362,  363
  364,  365,  366,  367,  368,  369,  370,  371,  372,  373,  374,  375,  376,  377,  378,  379
  380,  381,  382,  383,  384,  385,  386,  387,  388,  389,  390,  391,  392,  393,  394,  395
  396,  397,  398,  399,  400,  401,  402,  403,  404,  405,  406,  407,  408,  409,  410,  411
  412,  413,  414,  415,  416,  417,  418,  419,  420,  421,  422,  423,  424,  425,  426,  427
  428,  429,  430,  431,  432,  433,  434,  435,  436,  437,  438,  439,  440,  441,  442,  443
  444,  445,  446,  447,  448,  449,  450,  451,  452,  453,  454,  455,  456,  457,  458,  459
  460,  461,  462,  463,  464,  465,  466,  467,  468,  469,  470,  471,  472,  473,  474,  475
  476,  477,  478,  479,  480,  481,  482,  483,  484,  485,  486,  487,  488,  489,  490,  491
  492,  493,  494,  495,  496,  497,  498,  499,  500,  501,  502,  503,  504,  505,  506,  507
  508,  509,  510,  511,  512,  513,  514,  515,  516,  517,  518,  519,  520,  521,  522,  523
  524,  525,  526,  527,  528,  529,  530,  531,  532,  533,  534,  535,  536,  537,  538,  539
  540,  541,  542,  543,  544,  545,  546,  547,  548,  549,  550,  551,  552,  553,  554,  555
  556,  557,  558,  559,  560,  561,  562,  563,  564,  565,  566,  567,  568,  569,  570,  571
  572,  573,  574,  575,  576,  577,  578,  579,  580,  581,  582,  583,  584,  585,  586,  587
  588,  589,  590,  591,  592,  593,  594,  595,  596,  597,  598,  599,  600,  601,  602,  603
  604,  605,  606,  607,  608,  609,  610,  611,  612,  613,  614,  615,  616,  617,  618,  619
  620,  621,  622,  623,  624,  625,  626,  627,  628,  629,  630,  631,  632,  633,  634,  635
** ... 38 like lines cut
*Surface, type=ELEMENT, name=Surf_Middle
_Surf_Middle_SPOS, SPOS
** Section: Sec_Facetrack
*Shell Section, elset=Set_Whole, material=Mat_CFS_Facetrack, offset=SPOS
1.2, 7
*End Part
**  
*Part, name=Gear
*Node
      1,   21.5606232,   52.0519485,          30.
      2,   17.0622635,   41.1919479,          30.
      3,   17.0622635,   41.1919479,           0.
      4,   21.5606232,   52.0519485,           0.
      5,   17.7125816,   37.9225807,          30.
      6,   17.7125816,   37.9225807,           0.
      7,   37.9225807,   17.7125816,          30.
      8,   37.9225807,   17.7125816,           0.
      9,   41.1919479,   17.0622635,          30.
     10,   41.1919479,   17.0622635,           0.
     11,   52.0519485,   21.5606232,          30.
     12,   52.0519485,   21.5606232,           0.
     13,   56.2000008,   18.7889843,          30.
     14,   56.2000008,   18.7889843,           0.
     15,   56.2000008,  -18.7889843,          30.
     16,   56.2000008,  -18.7889843,           0.
     17,   52.0519485,  -21.5606232,          30.
     18,   52.0519485,  -21.5606232,           0.
     19,   41.1919479,  -17.0622635,          30.
     20,   41.1919479,  -17.0622635,           0.
** ... 13744 like lines cut
*Element, type=S4R
  1,    1,   65, 1817,  144
  2,   65,   66, 1818, 1817
  3,   66,   67, 1819, 1818
  4,   67,   68, 1820, 1819
  5,   68,   69, 1821, 1820
  6,   69,   70, 1822, 1821
  7,   70,   71, 1823, 1822
  8,   71,   72, 1824, 1823
  9,   72,   73, 1825, 1824
 10,   73,   74, 1826, 1825
 11,   74,   75, 1827, 1826
 12,   75,    2,   76, 1827
 13,  144, 1817, 1828,  143
 14, 1817, 1818, 1829, 1828
 15, 1818, 1819, 1830, 1829
 16, 1819, 1820, 1831, 1830
 17, 1820, 1821, 1832, 1831
 18, 1821, 1822, 1833, 1832
 19, 1822, 1823, 1834, 1833
 20, 1823, 1824, 1835, 1834
** ... 13300 like lines cut
*Nset, nset=Set_Bottom_Edge
    3,    4,    6,    8,   10,   12,   14,   16,   18,   20,   22,   24,   26,   28,   30,   32
   34,   36,   38,   40,   42,   44,   46,   48,   50,   52,   54,   56,   58,   60,   62,   64
  105,  106,  107,  108,  109,  110,  111,  112,  113,  114,  115,  177,  178,  179,  237,  238
  239,  240,  241,  242,  243,  244,  245,  246,  247,  248,  249,  250,  251,  252,  253,  254
  255,  256,  257,  258,  259,  260,  261,  262,  263,  264,  297,  298,  299,  340,  341,  342
  343,  344,  345,  346,  347,  348,  349,  350,  385,  386,  387,  388,  389,  456,  457,  458
  459,  460,  461,  462,  463,  464,  465,  466,  467,  468,  469,  470,  471,  472,  473,  474
  475,  476,  477,  478,  479,  480,  481,  482,  483,  484,  485,  486,  487,  488,  489,  490
  491,  492,  527,  528,  529,  530,  531,  572,  573,  574,  575,  576,  577,  578,  579,  580
  581,  582,  615,  616,  617,  675,  676,  677,  678,  679,  680,  681,  682,  683,  684,  685
  686,  687,  688,  689,  690,  691,  692,  693,  694,  695,  696,  697,  698,  699,  700,  701
  702,  735,  736,  737,  778,  779,  780,  781,  782,  783,  784,  785,  786,  787,  788,  823
  824,  825,  826,  827,  894,  895,  896,  897,  898,  899,  900,  901,  902,  903,  904,  905
  906,  907,  908,  909,  910,  911,  912,  913,  914,  915,  916,  917,  918,  919,  920,  921
  922,  923,  924,  925,  926,  927,  928,  929,  930,  965,  966,  967,  968,  969, 1010, 1011
 1012, 1013, 1014, 1015, 1016, 1017, 1018, 1019, 1020, 1053, 1054, 1055, 1113, 1114, 1115, 1116
 1117, 1118, 1119, 1120, 1121, 1122, 1123, 1124, 1125, 1126, 1127, 1128, 1129, 1130, 1131, 1132
 1133, 1134, 1135, 1136, 1137, 1138, 1139, 1140, 1173, 1174, 1175, 1216, 1217, 1218, 1219, 1220
 1221, 1222, 1223, 1224, 1225, 1226, 1261, 1262, 1263, 1264, 1265, 1332, 1333, 1334, 1335, 1336
 1337, 1338, 1339, 1340, 1341, 1342, 1343, 1344, 1345, 1346, 1347, 1348, 1349, 1350, 1351, 1352
** ... 8 like lines cut
*Elset, elset=Set_Bottom_Edge
   349,   350,   351,   352,   353,   354,   355,   356,   357,   358,   359,   360,   477,   478,   479,   480
  1322,  1323,  1324,  1325,  1326,  1327,  1328,  1329,  1330,  1331,  1332,  1333,  1334,  1335,  1336,  1337
  1338,  1339,  1340,  1341,  1342,  1343,  1344,  1345,  1346,  1347,  1348,  1349,  1350,  1467,  1468,  1469
  1470,  1819,  1820,  1821,  1822,  1823,  1824,  1825,  1826,  1827,  1828,  1829,  1830,  2005,  2006,  2007
  2008,  2009,  2010,  3113,  3114,  3115,  3116,  3117,  3118,  3119,  3120,  3121,  3122,  3123,  3124,  3125
  3126,  3127,  3128,  3129,  3130,  3131,  3132,  3133,  3134,  3135,  3136,  3137,  3138,  3139,  3140,  3141
  3142,  3143,  3144,  3145,  3146,  3147,  3148,  3149,  3150,  3325,  3326,  3327,  3328,  3329,  3330,  3679
  3680,  3681,  3682,  3683,  3684,  3685,  3686,  3687,  3688,  3689,  3690,  3807,  3808,  3809,  3810,  4652
  4653,  4654,  4655,  4656,  4657,  4658,  4659,  4660,  4661,  4662,  4663,  4664,  4665,  4666,  4667,  4668
  4669,  4670,  4671,  4672,  4673,  4674,  4675,  4676,  4677,  4678,  4679,  4680,  4797,  4798,  4799,  4800
  5149,  5150,  5151,  5152,  5153,  5154,  5155,  5156,  5157,  5158,  5159,  5160,  5335,  5336,  5337,  5338
  5339,  5340,  6443,  6444,  6445,  6446,  6447,  6448,  6449,  6450,  6451,  6452,  6453,  6454,  6455,  6456
  6457,  6458,  6459,  6460,  6461,  6462,  6463,  6464,  6465,  6466,  6467,  6468,  6469,  6470,  6471,  6472
  6473,  6474,  6475,  6476,  6477,  6478,  6479,  6480,  6655,  6656,  6657,  6658,  6659,  6660,  7009,  7010
  7011,  7012,  7013,  7014,  7015,  7016,  7017,  7018,  7019,  7020,  7137,  7138,  7139,  7140,  7982,  7983
  7984,  7985,  7986,  7987,  7988,  7989,  7990,  7991,  7992,  7993,  7994,  7995,  7996,  7997,  7998,  7999
  8000,  8001,  8002,  8003,  8004,  8005,  8006,  8007,  8008,  8009,  8010,  8127,  8128,  8129,  8130,  8479
  8480,  8481,  8482,  8483,  8484,  8485,  8486,  8487,  8488,  8489,  8490,  8665,  8666,  8667,  8668,  8669
  8670,  9773,  9774,  9775,  9776,  9777,  9778,  9779,  9780,  9781,  9782,  9783,  9784,  9785,  9786,  9787
  9788,  9789,  9790,  9791,  9792,  9793,  9794,  9795,  9796,  9797,  9798,  9799,  9800,  9801,  9802,  9803
** ... 8 like lines cut
*Nset, nset=Set_Top_Edge
    1,    2,    5,    7,    9,   11,   13,   15,   17,   19,   21,   23,   25,   27,   29,   31
   33,   35,   37,   39,   41,   43,   45,   47,   49,   51,   53,   55,   57,   59,   61,   63
   65,   66,   67,   68,   69,   70,   71,   72,   73,   74,   75,  145,  146,  147,  180,  181
  182,  183,  184,  185,  186,  187,  188,  189,  190,  191,  192,  193,  194,  195,  196,  197
  198,  199,  200,  201,  202,  203,  204,  205,  206,  207,  265,  266,  267,  300,  301,  302
  303,  304,  305,  306,  307,  308,  309,  310,  351,  352,  353,  354,  355,  390,  391,  392
  393,  394,  395,  396,  397,  398,  399,  400,  401,  402,  403,  404,  405,  406,  407,  408
  409,  410,  411,  412,  413,  414,  415,  416,  417,  418,  419,  420,  421,  422,  423,  424
  425,  426,  493,  494,  495,  496,  497,  532,  533,  534,  535,  536,  537,  538,  539,  540
  541,  542,  583,  584,  585,  618,  619,  620,  621,  622,  623,  624,  625,  626,  627,  628
  629,  630,  631,  632,  633,  634,  635,  636,  637,  638,  639,  640,  641,  642,  643,  644
  645,  703,  704,  705,  738,  739,  740,  741,  742,  743,  744,  745,  746,  747,  748,  789
  790,  791,  792,  793,  828,  829,  830,  831,  832,  833,  834,  835,  836,  837,  838,  839
  840,  841,  842,  843,  844,  845,  846,  847,  848,  849,  850,  851,  852,  853,  854,  855
  856,  857,  858,  859,  860,  861,  862,  863,  864,  931,  932,  933,  934,  935,  970,  971
  972,  973,  974,  975,  976,  977,  978,  979,  980, 1021, 1022, 1023, 1056, 1057, 1058, 1059
 1060, 1061, 1062, 1063, 1064, 1065, 1066, 1067, 1068, 1069, 1070, 1071, 1072, 1073, 1074, 1075
 1076, 1077, 1078, 1079, 1080, 1081, 1082, 1083, 1141, 1142, 1143, 1176, 1177, 1178, 1179, 1180
 1181, 1182, 1183, 1184, 1185, 1186, 1227, 1228, 1229, 1230, 1231, 1266, 1267, 1268, 1269, 1270
 1271, 1272, 1273, 1274, 1275, 1276, 1277, 1278, 1279, 1280, 1281, 1282, 1283, 1284, 1285, 1286
** ... 8 like lines cut
*Elset, elset=Set_Top_Edge
     1,     2,     3,     4,     5,     6,     7,     8,     9,    10,    11,    12,   361,   362,   363,   364
   481,   482,   483,   484,   485,   486,   487,   488,   489,   490,   491,   492,   493,   494,   495,   496
   497,   498,   499,   500,   501,   502,   503,   504,   505,   506,   507,   508,   509,  1351,  1352,  1353
  1354,  1471,  1472,  1473,  1474,  1475,  1476,  1477,  1478,  1479,  1480,  1481,  1482,  1831,  1832,  1833
  1834,  1835,  1836,  2011,  2012,  2013,  2014,  2015,  2016,  2017,  2018,  2019,  2020,  2021,  2022,  2023
  2024,  2025,  2026,  2027,  2028,  2029,  2030,  2031,  2032,  2033,  2034,  2035,  2036,  2037,  2038,  2039
  2040,  2041,  2042,  2043,  2044,  2045,  2046,  2047,  2048,  3151,  3152,  3153,  3154,  3155,  3156,  3331
  3332,  3333,  3334,  3335,  3336,  3337,  3338,  3339,  3340,  3341,  3342,  3691,  3692,  3693,  3694,  3811
  3812,  3813,  3814,  3815,  3816,  3817,  3818,  3819,  3820,  3821,  3822,  3823,  3824,  3825,  3826,  3827
  3828,  3829,  3830,  3831,  3832,  3833,  3834,  3835,  3836,  3837,  3838,  3839,  4681,  4682,  4683,  4684
  4801,  4802,  4803,  4804,  4805,  4806,  4807,  4808,  4809,  4810,  4811,  4812,  5161,  5162,  5163,  5164
  5165,  5166,  5341,  5342,  5343,  5344,  5345,  5346,  5347,  5348,  5349,  5350,  5351,  5352,  5353,  5354
  5355,  5356,  5357,  5358,  5359,  5360,  5361,  5362,  5363,  5364,  5365,  5366,  5367,  5368,  5369,  5370
  5371,  5372,  5373,  5374,  5375,  5376,  5377,  5378,  6481,  6482,  6483,  6484,  6485,  6486,  6661,  6662
  6663,  6664,  6665,  6666,  6667,  6668,  6669,  6670,  6671,  6672,  7021,  7022,  7023,  7024,  7141,  7142
  7143,  7144,  7145,  7146,  7147,  7148,  7149,  7150,  7151,  7152,  7153,  7154,  7155,  7156,  7157,  7158
  7159,  7160,  7161,  7162,  7163,  7164,  7165,  7166,  7167,  7168,  7169,  8011,  8012,  8013,  8014,  8131
  8132,  8133,  8134,  8135,  8136,  8137,  8138,  8139,  8140,  8141,  8142,  8491,  8492,  8493,  8494,  8495
  8496,  8671,  8672,  8673,  8674,  8675,  8676,  8677,  8678,  8679,  8680,  8681,  8682,  8683,  8684,  8685
  8686,  8687,  8688,  8689,  8690,  8691,  8692,  8693,  8694,  8695,  8696,  8697,  8698,  8699,  8700,  8701
** ... 8 like lines cut
*Nset, nset=Set_Whole, generate
     1,  13764,      1
*Elset, elset=Set_Whole, generate
     1,  13320,      1
*Elset, elset=_Surf_Outside_SPOS, internal, generate
     1,  13320,      1
*Surface, type=ELEMENT, name=Surf_Outside
_Surf_Outside_SPOS, SPOS
** Section: Sec_Gear
*Shell Section, elset=Set_Whole, material=Mat_WAAM_n, offset=SPOS
3.3, 7
*End Part
**  
*Part, name=Joist
*Node
      1,         37.5,        -105.,        1250.
      2,         37.5,        -120.,        1250.
      3,         37.5,        -120.,         150.
      4,         37.5,        -105.,         150.
      5,        -37.5,        -120.,        1250.
      6,        -37.5,        -120.,         150.
      7,        -37.5,         120.,        1250.
      8,        -37.5,         120.,         150.
      9,         37.5,         120.,        1250.
     10,         37.5,         120.,         150.
     11,         37.5,         105.,        1250.
     12,         37.5,         105.,         150.
     13,         37.5,         120.,        1350.
     14,         37.5,         105.,        1350.
     15,        -37.5,         120.,        1350.
     16,        -37.5,        -120.,        1350.
     17,         37.5,        -120.,        1350.
     18,         37.5,        -120.,           0.
     19,         37.5,        -105.,           0.
     20,         37.5,        -105.,        1350.
** ... 10174 like lines cut
*Element, type=S4R
  1,    1,   57, 1417,  276
  2,   57,    2,   58, 1417
  3,  276, 1417, 1418,  275
  4, 1417,   58,   59, 1418
  5,  275, 1418, 1419,  274
  6, 1418,   59,   60, 1419
  7,  274, 1419, 1420,  273
  8, 1419,   60,   61, 1420
  9,  273, 1420, 1421,  272
 10, 1420,   61,   62, 1421
 11,  272, 1421, 1422,  271
 12, 1421,   62,   63, 1422
 13,  271, 1422, 1423,  270
 14, 1422,   63,   64, 1423
 15,  270, 1423, 1424,  269
 16, 1423,   64,   65, 1424
 17,  269, 1424, 1425,  268
 18, 1424,   65,   66, 1425
 19,  268, 1425, 1426,  267
 20, 1425,   66,   67, 1426
** ... 9700 like lines cut
*Element, type=S3
5581,  6317,  6329,  6318
5582,  6327,  6326,  6337
5583,  8575,  8335,  8332
5584,  6404,  6403,  6420
5585,  6559,  9863,  9963
5586,  6585,  8301,  6594
5587,  9312,  9166,  9150
5588,  6278,  6279,  6270
5589,  6812,  6823,  6782
5590,  6514,  6540,  6515
5591, 10192,  9384,  9305
5592,  6369,  6370,  6357
5593,  8970,  8529,  6396
5594,  6369,  6386,  6387
5595,  8008,  6433,  6432
5596,  9741,  9722,  8489
5597,  8675,  8625,  6601
5598,  9924,  9096,  8866
5599,  6773,  6774,  6759
5600,  9821,  8382,  8194
** ... 126 like lines cut
*Nset, nset=Set_Top_Edge
  13,  14,  15,  16,  17,  20, 798, 817, 818, 819, 820, 821, 822, 823, 833, 834
 835, 836, 837, 838, 839, 840, 841, 842, 843, 844, 845, 846, 847, 848, 849, 850
 851, 852, 853, 854, 855, 865, 866, 867, 868, 869, 870, 871, 910
*Elset, elset=Set_Top_Edge
 4859, 4860, 4933, 4934, 4935, 4936, 4937, 4938, 4939, 4940, 5157, 5158, 5159, 5160, 5161, 5162
 5163, 5164, 5165, 5166, 5167, 5168, 5169, 5170, 5171, 5172, 5173, 5174, 5175, 5176, 5177, 5178
 5179, 5180, 5253, 5254, 5255, 5256, 5257, 5258, 5259, 5260, 5309, 5310
*Nset, nset=Set_Bottom_Edge
   18,   19,   21,   22,   23,   24,  886,  925,  926,  927,  928,  929,  930,  931,  946,  947
  948,  949,  950,  951,  952,  981, 1394, 1395, 1396, 1397, 1398, 1399, 1400, 1401, 1402, 1403
 1404, 1405, 1406, 1407, 1408, 1409, 1410, 1411, 1412, 1413, 1414, 1415, 1416
*Elset, elset=Set_Bottom_Edge
 5289, 5290, 5423, 5424, 5425, 5426, 5427, 5428, 5429, 5430, 5543, 5544, 5545, 5546, 5547, 5548
 5549, 5550, 5579, 5580, 5761, 5991, 5992, 6068, 6085, 6147, 6160, 6161, 6345, 6364, 6374, 6382
 6388, 6392, 6396, 6397, 6398, 6416, 6424, 6474, 6509, 6849, 8750, 9001
*Nset, nset=Set_Load_Edge
   1,   2,   5,   7,   9,  11,  57, 277, 278, 279, 280, 281, 282, 283, 400, 401
 402, 403, 404, 405, 406, 407, 408, 409, 410, 411, 412, 413, 414, 415, 416, 417
 418, 419, 420, 421, 422, 555, 556, 557, 558, 559, 560, 561, 678
*Elset, elset=Set_Load_Edge
    1,    2,  221,  222,  223,  224,  225,  226,  227,  228, 1101, 1102, 1103, 1104, 1105, 1106
 1107, 1108, 1109, 1110, 1111, 1112, 1113, 1114, 1115, 1116, 1117, 1118, 1119, 1120, 1121, 1122
 1123, 1124, 3741, 3742, 3743, 3744, 3745, 3746, 3747, 3748, 4621, 4622, 4841, 4842, 4861, 4862
 4863, 4864, 4865, 4866, 4867, 4868, 4941, 4942, 4943, 4944, 4945, 4946, 4947, 4948, 4949, 4950
 4951, 4952, 4953, 4954, 4955, 4956, 4957, 4958, 4959, 4960, 4961, 4962, 4963, 4964, 5181, 5182
 5183, 5184, 5185, 5186, 5187, 5188, 5291, 5292
*Nset, nset=Set_Node_Corner_1
 18,
*Nset, nset=Set_Node_Corner_2
 22,
*Nset, nset=Set_TopSurf
    1,    2,    3,    4,    5,    6,    7,    8,    9,   10,   11,   12,   13,   14,   15,   16
   17,   18,   19,   20,   21,   22,   23,   24,   57,   58,   59,   60,   61,   62,   63,   64
   65,   66,   67,   68,   69,   70,   71,   72,   73,   74,   75,   76,   77,   78,   79,   80
   81,   82,   83,   84,   85,   86,   87,   88,   89,   90,   91,   92,   93,   94,   95,   96
   97,   98,   99,  100,  101,  102,  103,  104,  105,  106,  107,  108,  109,  110,  111,  112
  113,  114,  115,  116,  117,  118,  119,  120,  121,  122,  123,  124,  125,  126,  127,  128
  129,  130,  131,  132,  133,  134,  135,  136,  137,  138,  139,  140,  141,  142,  143,  144
  145,  146,  147,  148,  149,  150,  151,  152,  153,  154,  155,  156,  157,  158,  159,  160
  161,  162,  163,  164,  165,  166,  167,  168,  169,  170,  171,  172,  173,  174,  175,  176
  177,  178,  179,  180,  181,  182,  183,  184,  185,  186,  187,  188,  189,  190,  191,  192
  193,  194,  195,  196,  197,  198,  199,  200,  201,  202,  203,  204,  205,  206,  207,  208
  209,  210,  211,  212,  213,  214,  215,  216,  217,  218,  219,  220,  221,  222,  223,  224
  225,  226,  227,  228,  229,  230,  231,  232,  233,  234,  235,  236,  237,  238,  239,  240
  241,  242,  243,  244,  245,  246,  247,  248,  249,  250,  251,  252,  253,  254,  255,  256
  257,  258,  259,  260,  261,  262,  263,  264,  265,  266,  267,  268,  269,  270,  271,  272
  273,  274,  275,  276,  277,  278,  279,  280,  281,  282,  283,  284,  285,  286,  287,  288
  289,  290,  291,  292,  293,  294,  295,  296,  297,  298,  299,  300,  301,  302,  303,  304
  305,  306,  307,  308,  309,  310,  311,  312,  313,  314,  315,  316,  317,  318,  319,  320
  321,  322,  323,  324,  325,  326,  327,  328,  329,  330,  331,  332,  333,  334,  335,  336
  337,  338,  339,  340,  341,  342,  343,  344,  345,  346,  347,  348,  349,  350,  351,  352
** ... 167 like lines cut
*Elset, elset=Set_TopSurf
    1,    2,    3,    4,    5,    6,    7,    8,    9,   10,   11,   12,   13,   14,   15,   16
   17,   18,   19,   20,   21,   22,   23,   24,   25,   26,   27,   28,   29,   30,   31,   32
   33,   34,   35,   36,   37,   38,   39,   40,   41,   42,   43,   44,   45,   46,   47,   48
   49,   50,   51,   52,   53,   54,   55,   56,   57,   58,   59,   60,   61,   62,   63,   64
   65,   66,   67,   68,   69,   70,   71,   72,   73,   74,   75,   76,   77,   78,   79,   80
   81,   82,   83,   84,   85,   86,   87,   88,   89,   90,   91,   92,   93,   94,   95,   96
   97,   98,   99,  100,  101,  102,  103,  104,  105,  106,  107,  108,  109,  110,  111,  112
  113,  114,  115,  116,  117,  118,  119,  120,  121,  122,  123,  124,  125,  126,  127,  128
  129,  130,  131,  132,  133,  134,  135,  136,  137,  138,  139,  140,  141,  142,  143,  144
  145,  146,  147,  148,  149,  150,  151,  152,  153,  154,  155,  156,  157,  158,  159,  160
  161,  162,  163,  164,  165,  166,  167,  168,  169,  170,  171,  172,  173,  174,  175,  176
  177,  178,  179,  180,  181,  182,  183,  184,  185,  186,  187,  188,  189,  190,  191,  192
  193,  194,  195,  196,  197,  198,  199,  200,  201,  202,  203,  204,  205,  206,  207,  208
  209,  210,  211,  212,  213,  214,  215,  216,  217,  218,  219,  220,  221,  222,  223,  224
  225,  226,  227,  228,  229,  230,  231,  232,  233,  234,  235,  236,  237,  238,  239,  240
  241,  242,  243,  244,  245,  246,  247,  248,  249,  250,  251,  252,  253,  254,  255,  256
  257,  258,  259,  260,  261,  262,  263,  264,  265,  266,  267,  268,  269,  270,  271,  272
  273,  274,  275,  276,  277,  278,  279,  280,  281,  282,  283,  284,  285,  286,  287,  288
  289,  290,  291,  292,  293,  294,  295,  296,  297,  298,  299,  300,  301,  302,  303,  304
  305,  306,  307,  308,  309,  310,  311,  312,  313,  314,  315,  316,  317,  318,  319,  320
** ... 149 like lines cut
*Nset, nset=Set_MidSurf
     5,     6,     7,     8,    15,    16,    21,    23,    25,    26,    27,    28,    29,    30,    31,    32
    33,    34,    35,    36,    37,    38,    39,    40,    41,    42,    43,    44,    45,    46,    47,    48
    49,    50,    51,    52,    53,    54,    55,    56,   284,   285,   286,   287,   288,   289,   290,   291
   292,   293,   294,   295,   296,   297,   298,   299,   300,   301,   302,   303,   304,   305,   306,   307
   308,   309,   310,   311,   312,   313,   314,   315,   316,   317,   318,   319,   320,   321,   322,   323
   324,   325,   326,   327,   328,   329,   330,   331,   332,   333,   334,   335,   336,   337,   338,   339
   340,   341,   342,   343,   344,   345,   346,   347,   348,   349,   350,   351,   352,   353,   354,   355
   356,   357,   358,   359,   360,   361,   362,   363,   364,   365,   366,   367,   368,   369,   370,   371
   372,   373,   374,   375,   376,   377,   378,   379,   380,   381,   382,   383,   384,   385,   386,   387
   388,   389,   390,   391,   392,   400,   401,   402,   403,   404,   405,   406,   407,   408,   409,   410
   411,   412,   413,   414,   415,   416,   417,   418,   419,   420,   421,   422,   423,   424,   425,   426
   427,   428,   429,   430,   431,   432,   433,   434,   435,   436,   437,   438,   439,   440,   441,   442
   443,   444,   445,   446,   447,   448,   449,   450,   451,   452,   453,   454,   455,   456,   457,   458
   459,   460,   461,   462,   463,   464,   465,   466,   467,   468,   469,   470,   471,   472,   473,   474
   475,   476,   477,   478,   479,   480,   481,   482,   483,   484,   485,   486,   487,   488,   489,   490
   491,   492,   493,   494,   495,   496,   497,   498,   499,   500,   501,   502,   503,   504,   505,   506
   507,   508,   509,   510,   511,   512,   513,   514,   515,   516,   517,   518,   519,   520,   521,   522
   523,   524,   525,   526,   527,   528,   529,   530,   531,   532,   533,   534,   535,   536,   537,   538
   539,   540,   541,   542,   543,   544,   545,   546,   547,   548,   549,   550,   551,   552,   553,   554
   808,   809,   810,   811,   812,   813,   814,   815,   816,   824,   825,   826,   827,   828,   829,   830
** ... 448 like lines cut
*Elset, elset=Set_MidSurf
 1101, 1102, 1103, 1104, 1105, 1106, 1107, 1108, 1109, 1110, 1111, 1112, 1113, 1114, 1115, 1116
 1117, 1118, 1119, 1120, 1121, 1122, 1123, 1124, 1125, 1126, 1127, 1128, 1129, 1130, 1131, 1132
 1133, 1134, 1135, 1136, 1137, 1138, 1139, 1140, 1141, 1142, 1143, 1144, 1145, 1146, 1147, 1148
 1149, 1150, 1151, 1152, 1153, 1154, 1155, 1156, 1157, 1158, 1159, 1160, 1161, 1162, 1163, 1164
 1165, 1166, 1167, 1168, 1169, 1170, 1171, 1172, 1173, 1174, 1175, 1176, 1177, 1178, 1179, 1180
 1181, 1182, 1183, 1184, 1185, 1186, 1187, 1188, 1189, 1190, 1191, 1192, 1193, 1194, 1195, 1196
 1197, 1198, 1199, 1200, 1201, 1202, 1203, 1204, 1205, 1206, 1207, 1208, 1209, 1210, 1211, 1212
 1213, 1214, 1215, 1216, 1217, 1218, 1219, 1220, 1221, 1222, 1223, 1224, 1225, 1226, 1227, 1228
 1229, 1230, 1231, 1232, 1233, 1234, 1235, 1236, 1237, 1238, 1239, 1240, 1241, 1242, 1243, 1244
 1245, 1246, 1247, 1248, 1249, 1250, 1251, 1252, 1253, 1254, 1255, 1256, 1257, 1258, 1259, 1260
 1261, 1262, 1263, 1264, 1265, 1266, 1267, 1268, 1269, 1270, 1271, 1272, 1273, 1274, 1275, 1276
 1277, 1278, 1279, 1280, 1281, 1282, 1283, 1284, 1285, 1286, 1287, 1288, 1289, 1290, 1291, 1292
 1293, 1294, 1295, 1296, 1297, 1298, 1299, 1300, 1301, 1302, 1303, 1304, 1305, 1306, 1307, 1308
 1309, 1310, 1311, 1312, 1313, 1314, 1315, 1316, 1317, 1318, 1319, 1320, 1321, 1322, 1323, 1324
 1325, 1326, 1327, 1328, 1329, 1330, 1331, 1332, 1333, 1334, 1335, 1336, 1337, 1338, 1339, 1340
 1341, 1342, 1343, 1344, 1345, 1346, 1347, 1348, 1349, 1350, 1351, 1352, 1353, 1354, 1355, 1356
 1357, 1358, 1359, 1360, 1361, 1362, 1363, 1364, 1365, 1366, 1367, 1368, 1369, 1370, 1371, 1372
 1373, 1374, 1375, 1376, 1377, 1378, 1379, 1380, 1381, 1382, 1383, 1384, 1385, 1386, 1387, 1388
 1389, 1390, 1391, 1392, 1393, 1394, 1395, 1396, 1397, 1398, 1399, 1400, 1401, 1402, 1403, 1404
 1405, 1406, 1407, 1408, 1409, 1410, 1411, 1412, 1413, 1414, 1415, 1416, 1417, 1418, 1419, 1420
** ... 428 like lines cut
*Nset, nset=Set_Wheel_Edge
   25,   26,   27,   28,   29,   30,   31,   32,   33,   34,   35,   36,   37,   38,   39,   40
   41,   42,   43,   44,   45,   46,   47,   48,   49,   50,   51,   52,   53,   54,   55,   56
  982,  983,  984,  985,  986,  987,  988,  989,  990,  991,  992,  993,  994,  995,  996,  997
  998,  999, 1000, 1001, 1002, 1003, 1004, 1005, 1006, 1007, 1008, 1009, 1010, 1011, 1012, 1013
 1014, 1015, 1016, 1017, 1018, 1019, 1020, 1021, 1022, 1023, 1024, 1025, 1026, 1027, 1028, 1029
 1030, 1031, 1032, 1033, 1034, 1035, 1036, 1037, 1038, 1039, 1040, 1041, 1042, 1043, 1044, 1045
 1046, 1047, 1048, 1049, 1050, 1051, 1052, 1053, 1054, 1055, 1056, 1057, 1058, 1059, 1060, 1061
 1062, 1063, 1064, 1065, 1066, 1067, 1068, 1069, 1070, 1071, 1072, 1073, 1074, 1075, 1076, 1077
 1078, 1079, 1080, 1081, 1082, 1083, 1084, 1085, 1086, 1087, 1088, 1089, 1090, 1091, 1092, 1093
 1094, 1095, 1096, 1097, 1098, 1099, 1100, 1101, 1102, 1103, 1104, 1105, 1106, 1107, 1108, 1109
 1110, 1111, 1112, 1113, 1114, 1115, 1116, 1117, 1118, 1119, 1120, 1121, 1122, 1123, 1124, 1125
 1126, 1127, 1128, 1129, 1130, 1131, 1132, 1133, 1134, 1135, 1136, 1137, 1138, 1139, 1140, 1141
 1142, 1143, 1144, 1145, 1146, 1147, 1148, 1149, 1150, 1151, 1152, 1153, 1154, 1155, 1156, 1157
 1158, 1159, 1160, 1161, 1162, 1163, 1164, 1165, 1166, 1167, 1168, 1169, 1170, 1171, 1172, 1173
 1174, 1175, 1176, 1177, 1178, 1179, 1180, 1181, 1182, 1183, 1184, 1185, 1186, 1187, 1188, 1189
 1190, 1191, 1192, 1193, 1194, 1195, 1196, 1197, 1198, 1199, 1200, 1201, 1202, 1203, 1204, 1205
 1206, 1207, 1208, 1209, 1210, 1211, 1212, 1213, 1214, 1215, 1216, 1217, 1218, 1219, 1220, 1221
 1222, 1223, 1224, 1225, 1226, 1227, 1228, 1229, 1230, 1231, 1232, 1233, 1234, 1235, 1236, 1237
 1238, 1239, 1240, 1241, 1242, 1243, 1244, 1245, 1246, 1247, 1248, 1249, 1250, 1251, 1252, 1253
 1254, 1255, 1256, 1257, 1258, 1259, 1260, 1261, 1262, 1263, 1264, 1265, 1266, 1267, 1268, 1269
** ... 8 like lines cut
*Elset, elset=Set_Wheel_Edge
 5605, 5606, 5727, 5756, 5757, 5758, 5759, 5762, 5763, 5773, 5783, 5784, 5791, 5802, 5803, 5810
 5818, 5819, 5827, 5833, 5834, 5851, 5852, 5853, 5855, 5856, 5874, 5886, 5887, 5898, 5899, 5907
 5910, 5911, 5912, 5914, 5917, 5918, 5919, 5920, 5921, 5922, 5924, 5925, 5930, 5931, 5932, 5939
 5940, 5942, 5943, 5946, 5949, 5950, 5951, 5958, 5966, 5967, 5969, 5978, 5979, 5981, 5982, 6001
 6002, 6003, 6009, 6012, 6013, 6014, 6016, 6017, 6018, 6019, 6020, 6021, 6023, 6024, 6025, 6026
 6027, 6028, 6029, 6030, 6031, 6032, 6033, 6035, 6037, 6038, 6040, 6044, 6045, 6046, 6055, 6056
 6058, 6060, 6063, 6065, 6066, 6074, 6075, 6078, 6079, 6081, 6082, 6083, 6087, 6088, 6089, 6092
 6102, 6104, 6105, 6106, 6108, 6110, 6112, 6113, 6114, 6115, 6122, 6127, 6128, 6130, 6131, 6132
 6133, 6137, 6138, 6414, 6534, 6621, 6639, 6648, 6657, 6711, 6724, 6735, 6745, 6750, 6765, 6786
 6794, 6799, 6813, 6814, 6823, 6824, 6853, 6854, 6855, 6856, 6857, 6858, 6859, 6860, 6861, 6862
 6863, 6864, 6865, 6866, 6867, 6868, 6869, 6870, 6871, 6872, 6873, 6874, 6875, 6876, 6877, 6879
 6880, 6881, 6882, 6883, 6884, 6885, 6886, 6887, 6888, 6889, 6890, 6891, 6892, 6893, 6894, 6896
 6898, 6900, 6901, 6902, 6904, 6905, 6906, 6907, 6909, 6910, 6911, 6912, 6913, 6914, 6915, 6916
 6917, 6918, 6920, 6921, 6922, 6923, 6925, 6926, 6927, 6928, 6930, 6931, 6932, 6933, 6935, 6936
 6937, 6938, 6939, 6940, 6941, 6942, 6944, 6945, 6946, 6949, 6951, 6952, 6953, 6955, 6956, 6957
 6958, 6959, 6960, 6961, 6962, 6963, 6964, 6965, 6966, 6967, 6968, 6969, 6970, 6971, 6972, 6973
 6974, 6975, 6976, 6977, 6978, 6979, 6980, 6981, 6982, 6983, 6984, 6985, 6986, 6989, 6990, 6992
 6994, 6995, 6996, 6997, 6998, 6999, 7000, 7001, 7002, 7003, 7004, 7006, 7008, 7009, 7010, 7011
 7012, 7013, 7014, 7016, 7017, 7019, 7020, 7021, 7022, 7023, 7025, 7027, 7028, 7029, 7031, 7032
 7033, 7035, 7037, 7038, 7039, 7040, 7041, 7042, 7043, 7044, 7046, 7047, 7049, 7050, 7051, 7052
** ... 8 like lines cut
*Nset, nset=Set_KW_0
    25,    26,    27,    28,    29,    30,    31,    32,    33,    34,    35,    36,    37,    38,    39,    40
    41,    42,    43,    44,    45,    46,    47,    48,    49,    50,    51,    52,    53,    54,    55,    56
   532,   533,   534,   535,   536,   537,   538,   539,   540,   541,   542,   543,   544,   545,   546,   547
   548,   549,   550,   551,   552,   553,   554,   982,   983,   984,   985,   986,   987,   988,   989,   990
   991,   992,   993,   994,   995,   996,   997,   998,   999,  1000,  1001,  1002,  1003,  1004,  1005,  1006
  1007,  1008,  1009,  1010,  1011,  1012,  1013,  1014,  1015,  1016,  1017,  1018,  1019,  1020,  1021,  1022
  1023,  1024,  1025,  1026,  1027,  1028,  1029,  1030,  1031,  1032,  1033,  1034,  1035,  1036,  1037,  1038
  1039,  1040,  1041,  1042,  1043,  1044,  1045,  1046,  1047,  1048,  1049,  1050,  1051,  1052,  1053,  1054
  1055,  1056,  1057,  1058,  1059,  1060,  1061,  1062,  1063,  1064,  1065,  1066,  1067,  1068,  1069,  1070
  1071,  1072,  1073,  1074,  1075,  1076,  1077,  1078,  1079,  1080,  1081,  1082,  1083,  1084,  1085,  1086
  1087,  1088,  1089,  1090,  1091,  1092,  1093,  1094,  1095,  1096,  1097,  1098,  1099,  1100,  1101,  1102
  1103,  1104,  1105,  1106,  1107,  1108,  1109,  1110,  1111,  1112,  1113,  1114,  1115,  1116,  1117,  1118
  1119,  1120,  1121,  1122,  1123,  1124,  1125,  1126,  1127,  1128,  1129,  1130,  1131,  1132,  1133,  1134
  1135,  1136,  1137,  1138,  1139,  1140,  1141,  1142,  1143,  1144,  1145,  1146,  1147,  1148,  1149,  1150
  1151,  1152,  1153,  1154,  1155,  1156,  1157,  1158,  1159,  1160,  1161,  1162,  1163,  1164,  1165,  1166
  1167,  1168,  1169,  1170,  1171,  1172,  1173,  1174,  1175,  1176,  1177,  1178,  1179,  1180,  1181,  1182
  1183,  1184,  1185,  1186,  1187,  1188,  1189,  1190,  1191,  1192,  1193,  1194,  1195,  1196,  1197,  1198
  1199,  1200,  1201,  1202,  1203,  1204,  1205,  1206,  1207,  1208,  1209,  1210,  1211,  1212,  1213,  1214
  1215,  1216,  1217,  1218,  1219,  1220,  1221,  1222,  1223,  1224,  1225,  1226,  1227,  1228,  1229,  1230
  1231,  1232,  1233,  1234,  1235,  1236,  1237,  1238,  1239,  1240,  1241,  1242,  1243,  1244,  1245,  1246
** ... 257 like lines cut
*Nset, nset=Set_Longitude_Edge_Top_1
   7, 423, 424, 425, 426, 427, 428, 429, 430, 431, 432, 433, 434, 435, 436, 437
 438, 439, 440, 441, 442, 443, 444, 445, 446, 447, 448, 449, 450, 451, 452, 453
 454, 455, 456, 457, 458, 459, 460, 461, 462, 463, 464, 465, 466, 467, 468, 469
 470, 471, 472, 473, 474, 475, 476, 477, 478, 479, 480, 481, 482, 483, 484, 485
 486, 487, 488, 489, 490, 491, 492, 493, 494, 495, 496, 497, 498, 499, 500, 501
 502, 503, 504, 505, 506, 507, 508, 509, 510, 511, 512, 513, 514, 515, 516, 517
 518, 519, 520, 521, 522, 523, 524, 525, 526, 527, 528, 529, 530, 531, 808, 809
 810, 811, 812, 813, 814, 815, 816
*Nset, nset=Set_Longitude_Edge_Top_2
   9, 562, 563, 564, 565, 566, 567, 568, 569, 570, 571, 572, 573, 574, 575, 576
 577, 578, 579, 580, 581, 582, 583, 584, 585, 586, 587, 588, 589, 590, 591, 592
 593, 594, 595, 596, 597, 598, 599, 600, 601, 602, 603, 604, 605, 606, 607, 608
 609, 610, 611, 612, 613, 614, 615, 616, 617, 618, 619, 620, 621, 622, 623, 624
 625, 626, 627, 628, 629, 630, 631, 632, 633, 634, 635, 636, 637, 638, 639, 640
 641, 642, 643, 644, 645, 646, 647, 648, 649, 650, 651, 652, 653, 654, 655, 656
 657, 658, 659, 660, 661, 662, 663, 664, 665, 666, 667, 668, 669, 670, 789, 790
 791, 792, 793, 794, 795, 796, 797
*Nset, nset=Set_Longitude_Edge_Bottom_1
   5, 284, 285, 286, 287, 288, 289, 290, 291, 292, 293, 294, 295, 296, 297, 298
 299, 300, 301, 302, 303, 304, 305, 306, 307, 308, 309, 310, 311, 312, 313, 314
 315, 316, 317, 318, 319, 320, 321, 322, 323, 324, 325, 326, 327, 328, 329, 330
 331, 332, 333, 334, 335, 336, 337, 338, 339, 340, 341, 342, 343, 344, 345, 346
 347, 348, 349, 350, 351, 352, 353, 354, 355, 356, 357, 358, 359, 360, 361, 362
 363, 364, 365, 366, 367, 368, 369, 370, 371, 372, 373, 374, 375, 376, 377, 378
 379, 380, 381, 382, 383, 384, 385, 386, 387, 388, 389, 390, 391, 392, 824, 825
 826, 827, 828, 829, 830, 831, 832
*Nset, nset=Set_Longitude_Edge_Bottom_2
   2,  58,  59,  60,  61,  62,  63,  64,  65,  66,  67,  68,  69,  70,  71,  72
  73,  74,  75,  76,  77,  78,  79,  80,  81,  82,  83,  84,  85,  86,  87,  88
  89,  90,  91,  92,  93,  94,  95,  96,  97,  98,  99, 100, 101, 102, 103, 104
 105, 106, 107, 108, 109, 110, 111, 112, 113, 114, 115, 116, 117, 118, 119, 120
 121, 122, 123, 124, 125, 126, 127, 128, 129, 130, 131, 132, 133, 134, 135, 136
 137, 138, 139, 140, 141, 142, 143, 144, 145, 146, 147, 148, 149, 150, 151, 152
 153, 154, 155, 156, 157, 158, 159, 160, 161, 162, 163, 164, 165, 166, 856, 857
 858, 859, 860, 861, 862, 863, 864
*Elset, elset=_Surf_0_SPOS, internal, generate
 5581,  9866,     1
*Surface, type=ELEMENT, name=Surf_0
_Surf_0_SPOS, SPOS
*Elset, elset=_Surf_Flange_1_SPOS, internal
  221,  222,  223,  224,  225,  226,  227,  228,  229,  230,  231,  232,  233,  234,  235,  236
  237,  238,  239,  240,  241,  242,  243,  244,  245,  246,  247,  248,  249,  250,  251,  252
  253,  254,  255,  256,  257,  258,  259,  260,  261,  262,  263,  264,  265,  266,  267,  268
  269,  270,  271,  272,  273,  274,  275,  276,  277,  278,  279,  280,  281,  282,  283,  284
  285,  286,  287,  288,  289,  290,  291,  292,  293,  294,  295,  296,  297,  298,  299,  300
  301,  302,  303,  304,  305,  306,  307,  308,  309,  310,  311,  312,  313,  314,  315,  316
  317,  318,  319,  320,  321,  322,  323,  324,  325,  326,  327,  328,  329,  330,  331,  332
  333,  334,  335,  336,  337,  338,  339,  340,  341,  342,  343,  344,  345,  346,  347,  348
  349,  350,  351,  352,  353,  354,  355,  356,  357,  358,  359,  360,  361,  362,  363,  364
  365,  366,  367,  368,  369,  370,  371,  372,  373,  374,  375,  376,  377,  378,  379,  380
  381,  382,  383,  384,  385,  386,  387,  388,  389,  390,  391,  392,  393,  394,  395,  396
  397,  398,  399,  400,  401,  402,  403,  404,  405,  406,  407,  408,  409,  410,  411,  412
  413,  414,  415,  416,  417,  418,  419,  420,  421,  422,  423,  424,  425,  426,  427,  428
  429,  430,  431,  432,  433,  434,  435,  436,  437,  438,  439,  440,  441,  442,  443,  444
  445,  446,  447,  448,  449,  450,  451,  452,  453,  454,  455,  456,  457,  458,  459,  460
  461,  462,  463,  464,  465,  466,  467,  468,  469,  470,  471,  472,  473,  474,  475,  476
  477,  478,  479,  480,  481,  482,  483,  484,  485,  486,  487,  488,  489,  490,  491,  492
  493,  494,  495,  496,  497,  498,  499,  500,  501,  502,  503,  504,  505,  506,  507,  508
  509,  510,  511,  512,  513,  514,  515,  516,  517,  518,  519,  520,  521,  522,  523,  524
  525,  526,  527,  528,  529,  530,  531,  532,  533,  534,  535,  536,  537,  538,  539,  540
** ... 48 like lines cut
*Surface, type=ELEMENT, name=Surf_Flange_1
_Surf_Flange_1_SPOS, SPOS
*Elset, elset=_Surf_Flange_2_SPOS, internal
 3741, 3742, 3743, 3744, 3745, 3746, 3747, 3748, 3749, 3750, 3751, 3752, 3753, 3754, 3755, 3756
 3757, 3758, 3759, 3760, 3761, 3762, 3763, 3764, 3765, 3766, 3767, 3768, 3769, 3770, 3771, 3772
 3773, 3774, 3775, 3776, 3777, 3778, 3779, 3780, 3781, 3782, 3783, 3784, 3785, 3786, 3787, 3788
 3789, 3790, 3791, 3792, 3793, 3794, 3795, 3796, 3797, 3798, 3799, 3800, 3801, 3802, 3803, 3804
 3805, 3806, 3807, 3808, 3809, 3810, 3811, 3812, 3813, 3814, 3815, 3816, 3817, 3818, 3819, 3820
 3821, 3822, 3823, 3824, 3825, 3826, 3827, 3828, 3829, 3830, 3831, 3832, 3833, 3834, 3835, 3836
 3837, 3838, 3839, 3840, 3841, 3842, 3843, 3844, 3845, 3846, 3847, 3848, 3849, 3850, 3851, 3852
 3853, 3854, 3855, 3856, 3857, 3858, 3859, 3860, 3861, 3862, 3863, 3864, 3865, 3866, 3867, 3868
 3869, 3870, 3871, 3872, 3873, 3874, 3875, 3876, 3877, 3878, 3879, 3880, 3881, 3882, 3883, 3884
 3885, 3886, 3887, 3888, 3889, 3890, 3891, 3892, 3893, 3894, 3895, 3896, 3897, 3898, 3899, 3900
 3901, 3902, 3903, 3904, 3905, 3906, 3907, 3908, 3909, 3910, 3911, 3912, 3913, 3914, 3915, 3916
 3917, 3918, 3919, 3920, 3921, 3922, 3923, 3924, 3925, 3926, 3927, 3928, 3929, 3930, 3931, 3932
 3933, 3934, 3935, 3936, 3937, 3938, 3939, 3940, 3941, 3942, 3943, 3944, 3945, 3946, 3947, 3948
 3949, 3950, 3951, 3952, 3953, 3954, 3955, 3956, 3957, 3958, 3959, 3960, 3961, 3962, 3963, 3964
 3965, 3966, 3967, 3968, 3969, 3970, 3971, 3972, 3973, 3974, 3975, 3976, 3977, 3978, 3979, 3980
 3981, 3982, 3983, 3984, 3985, 3986, 3987, 3988, 3989, 3990, 3991, 3992, 3993, 3994, 3995, 3996
 3997, 3998, 3999, 4000, 4001, 4002, 4003, 4004, 4005, 4006, 4007, 4008, 4009, 4010, 4011, 4012
 4013, 4014, 4015, 4016, 4017, 4018, 4019, 4020, 4021, 4022, 4023, 4024, 4025, 4026, 4027, 4028
 4029, 4030, 4031, 4032, 4033, 4034, 4035, 4036, 4037, 4038, 4039, 4040, 4041, 4042, 4043, 4044
 4045, 4046, 4047, 4048, 4049, 4050, 4051, 4052, 4053, 4054, 4055, 4056, 4057, 4058, 4059, 4060
** ... 48 like lines cut
*Surface, type=ELEMENT, name=Surf_Flange_2
_Surf_Flange_2_SPOS, SPOS
*Elset, elset=_Surf_1_SNEG, internal
 3694, 3695, 3696, 3697, 3698, 3699, 3700, 3701, 3702, 3703, 3704, 3705, 3706, 3707, 3708, 3709
 3710, 3711, 3712, 3713, 3714, 3715, 3718, 3719, 3720, 3721, 3722, 3723, 3724, 3725, 3726, 3727
 3728, 3729, 3730, 3731, 3732, 3733, 3734, 3735, 3736, 3737, 3738, 3739, 5581, 5582, 5583, 5584
 5585, 5586, 5587, 5588, 5589, 5590, 5591, 5592, 5593, 5594, 5595, 5596, 5597, 5598, 5599, 5600
 5601, 5602, 5603, 5604, 5605, 5606, 5607, 5608, 5609, 5610, 5611, 5612, 5613, 5614, 5615, 5616
 5617, 5618, 5619, 5620, 5621, 5622, 5623, 5624, 5625, 5626, 5627, 5628, 5629, 5630, 5631, 5632
 5633, 5634, 5635, 5636, 5637, 5638, 5639, 5640, 5641, 5642, 5643, 5644, 5645, 5646, 5647, 5648
 5649, 5650, 5651, 5652, 5653, 5654, 5655, 5656, 5657, 5658, 5659, 5660, 5661, 5662, 5663, 5664
 5665, 5666, 5667, 5668, 5669, 5670, 5671, 5672, 5673, 5674, 5675, 5676, 5677, 5678, 5679, 5680
 5681, 5682, 5683, 5684, 5685, 5686, 5687, 5688, 5689, 5690, 5691, 5692, 5693, 5694, 5695, 5696
 5697, 5698, 5699, 5700, 5701, 5702, 5703, 5704, 5705, 5706, 5707, 5708, 5709, 5710, 5711, 5712
 5713, 5714, 5715, 5716, 5717, 5718, 5719, 5720, 5721, 5722, 5723, 5724, 5725, 5726, 5727, 5728
 5729, 5730, 5731, 5732, 5733, 5734, 5735, 5736, 5738, 5739, 5741, 5742, 5743, 5744, 5745, 5746
 5747, 5748, 5749, 5750, 5751, 5752, 5753, 5754, 5755, 5756, 5757, 5758, 5759, 5760, 5762, 5763
 5764, 5765, 5766, 5767, 5768, 5769, 5770, 5771, 5773, 5774, 5775, 5776, 5777, 5778, 5779, 5780
 5781, 5783, 5784, 5785, 5786, 5787, 5788, 5789, 5790, 5791, 5792, 5793, 5794, 5795, 5796, 5797
 5798, 5799, 5800, 5802, 5803, 5804, 5805, 5806, 5807, 5808, 5809, 5810, 5811, 5812, 5813, 5814
 5815, 5816, 5817, 5818, 5819, 5820, 5821, 5822, 5823, 5824, 5825, 5826, 5827, 5828, 5829, 5830
 5831, 5832, 5833, 5834, 5835, 5836, 5837, 5838, 5839, 5840, 5841, 5842, 5843, 5844, 5845, 5846
 5847, 5848, 5849, 5850, 5851, 5852, 5853, 5854, 5855, 5856, 5857, 5858, 5859, 5860, 5861, 5862
** ... 248 like lines cut
*Surface, type=ELEMENT, name=Surf_1
_Surf_1_SNEG, SNEG
** Section: Sec_Joist
*Shell Section, elset=Set_TopSurf, material=Mat_CFS_Joist, offset=SPOS
1.3, 7
** Section: Sec_Joist
*Shell Section, elset=Set_MidSurf, material=Mat_CFS_Joist, offset=SNEG
1.3, 7
*End Part
**  
*Part, name=Stud
*Node
      1,         37.5,         -60.,         820.
      2,         37.5,         -75.,         820.
      3,         37.5,         -75.,         580.
      4,         37.5,         -60.,         580.
      5,        -37.5,         -75.,         820.
      6,        -37.5,         -75.,         580.
      7,        -37.5,          75.,         820.
      8,        -37.5,          75.,         580.
      9,         37.5,          75.,         820.
     10,         37.5,          75.,         580.
     11,         37.5,          60.,         820.
     12,         37.5,          60.,         580.
     13,         37.5,          75.,         830.
     14,         37.5,          60.,         830.
     15,        -37.5,          75.,         830.
     16,        -37.5,         -75.,         830.
     17,         37.5,         -75.,         830.
     18,         37.5,         -75.,           0.
     19,         37.5,         -60.,           0.
     20,         37.5,         -60.,         830.
** ... 3004 like lines cut
*Element, type=S4R
 1,   1,  25, 625,  72
 2,  25,   2,  26, 625
 3,  72, 625, 626,  71
 4, 625,  26,  27, 626
 5,  71, 626, 627,  70
 6, 626,  27,  28, 627
 7,  70, 627, 628,  69
 8, 627,  28,  29, 628
 9,  69, 628, 629,  68
10, 628,  29,  30, 629
11,  68, 629, 630,  67
12, 629,  30,  31, 630
13,  67, 630, 631,  66
14, 630,  31,  32, 631
15,  66, 631, 632,  65
16, 631,  32,  33, 632
17,  65, 632, 633,  64
18, 632,  33,  34, 633
19,  64, 633, 634,  63
20, 633,  34,  35, 634
** ... 2885 like lines cut
*Nset, nset=Set_Bottom_Edge
  18,  19,  21,  22,  23,  24, 309, 425, 426, 427, 428, 429, 430, 431, 489, 490
 491, 492, 493, 494, 495, 496, 497, 498, 499, 500, 501, 502, 560, 561, 562, 563
 564, 565, 566, 624
*Elset, elset=Set_Bottom_Edge
  988,  989, 1448, 1449, 1450, 1451, 1452, 1453, 1454, 1455, 2311, 2312, 2313, 2314, 2315, 2316
 2317, 2318, 2319, 2320, 2321, 2322, 2323, 2324, 2325, 2782, 2783, 2784, 2785, 2786, 2787, 2788
 2789, 2904, 2905
*Nset, nset=Set_Top_Edge
  13,  14,  15,  16,  17,  20, 223, 224, 225, 226, 227, 228, 229, 230, 231, 232
 233, 234, 235, 236, 237, 238, 239, 240, 241, 242, 243, 244, 245, 246, 247, 248
 249, 250, 251, 367
*Elset, elset=Set_Top_Edge
 841, 842, 843, 844, 845, 846, 847, 848, 849, 850, 851, 852, 853, 854, 855, 856
 857, 858, 859, 860, 861, 862, 863, 864, 865, 866, 867, 868, 869, 870, 871, 872
 873, 990, 991
*Nset, nset=Set_Whole, generate
    1,  3024,     1
*Elset, elset=Set_Whole, generate
    1,  2905,     1
*Elset, elset=_Surf_Middle_SPOS, internal, generate
 241,  600,    1
*Surface, type=ELEMENT, name=Surf_Middle
_Surf_Middle_SPOS, SPOS
*Elset, elset=_Surf_Flange_1_SPOS, internal, generate
  49,  240,    1
*Surface, type=ELEMENT, name=Surf_Flange_1
_Surf_Flange_1_SPOS, SPOS
*Elset, elset=_Surf_Flange_2_SPOS, internal, generate
 601,  792,    1
*Surface, type=ELEMENT, name=Surf_Flange_2
_Surf_Flange_2_SPOS, SPOS
** Section: Sec_Stud
*Shell Section, elset=Set_Whole, material=Mat_CFS_Stud, offset=SPOS
1.39, 7
*End Part
**  
**
** ASSEMBLY
**
*Assembly, name=Assembly
**  
*Instance, name=Stud_1, part=Stud
      -262.5,           0.,           0.
      -262.5,           0.,           0.,       -262.5, 0.707106790158355, 0.707106790158355,         180.
*End Instance
**  
*Instance, name=Stud_2, part=Stud
       262.5,           0.,           0.
       262.5,           0.,           0., 261.499999987312,           0.,           0., 89.9999992730282
*End Instance
**  
*Instance, name=Joist_1, part=Joist
      -186.2,         700.,         -75.
*End Instance
**  
*Instance, name=Joist_2, part=Joist
       186.2,         700.,         -75.
       186.2,         700.,         -75.,        186.2,         700.,         -74.,         180.
*End Instance
**  
*Instance, name=Facetrack_1, part=Facetrack
       -300.,         743.,        -110.
       -300.,         743.,        -110.,        -300., 744.000000012688,        -110., 89.9999992730282
*End Instance
**  
*Instance, name=Gear_1, part=Gear
       -225.,         700.,           0.
       -225.,         700.,           0.,        -225., 701.000000012688,           0., 89.9999992730282
*End Instance
**  
*Instance, name=Gear_2, part=Gear
        225.,         700.,           0.
        225.,         700.,           0., 224.292893209842,         700., 0.707106790158355,         180.
*End Instance
**  
*Node
      1,           0.,           0.,           0.
*Node
      2,           0.,         700.,        1175.
*Node
      3,           0.,         810.,        1175.
*Node
      4,        262.5,         795.,         -75.
      5,        262.5,         691.,         -75.
      6,       -262.5,         795.,         -75.
      7,       -262.5,         691.,         -75.
*Element, type=CONN3D2
1, 3, 2
*Connector Section, elset=Wire_Swing_Link, behavior=ConnSect_Swing_Link
Axial,
Datum_csys_Swing_Link,
*Nset, nset=AttachmentPoints_Facetrack_Stud_1
 6, 7
*Nset, nset=AttachmentPoints_Facetrack_Stud_2
 4, 5
*Nset, nset=Joist_Top_Edge_1, instance=Joist_1
   1,   2,   5,   7,   9,  11,  57, 277, 278, 279, 280, 281, 282, 283, 400, 401
 402, 403, 404, 405, 406, 407, 408, 409, 410, 411, 412, 413, 414, 415, 416, 417
 418, 419, 420, 421, 422, 555, 556, 557, 558, 559, 560, 561, 678
*Nset, nset=Joist_Top_Edge_1, instance=Joist_2
   1,   2,   5,   7,   9,  11,  57, 277, 278, 279, 280, 281, 282, 283, 400, 401
 402, 403, 404, 405, 406, 407, 408, 409, 410, 411, 412, 413, 414, 415, 416, 417
 418, 419, 420, 421, 422, 555, 556, 557, 558, 559, 560, 561, 678
*Elset, elset=Joist_Top_Edge_1, instance=Joist_1
    1,    2,  221,  222,  223,  224,  225,  226,  227,  228, 1101, 1102, 1103, 1104, 1105, 1106
 1107, 1108, 1109, 1110, 1111, 1112, 1113, 1114, 1115, 1116, 1117, 1118, 1119, 1120, 1121, 1122
 1123, 1124, 3741, 3742, 3743, 3744, 3745, 3746, 3747, 3748, 4621, 4622, 4841, 4842, 4861, 4862
 4863, 4864, 4865, 4866, 4867, 4868, 4941, 4942, 4943, 4944, 4945, 4946, 4947, 4948, 4949, 4950
 4951, 4952, 4953, 4954, 4955, 4956, 4957, 4958, 4959, 4960, 4961, 4962, 4963, 4964, 5181, 5182
 5183, 5184, 5185, 5186, 5187, 5188, 5291, 5292
*Elset, elset=Joist_Top_Edge_1, instance=Joist_2
    1,    2,  221,  222,  223,  224,  225,  226,  227,  228, 1101, 1102, 1103, 1104, 1105, 1106
 1107, 1108, 1109, 1110, 1111, 1112, 1113, 1114, 1115, 1116, 1117, 1118, 1119, 1120, 1121, 1122
 1123, 1124, 3741, 3742, 3743, 3744, 3745, 3746, 3747, 3748, 4621, 4622, 4841, 4842, 4861, 4862
 4863, 4864, 4865, 4866, 4867, 4868, 4941, 4942, 4943, 4944, 4945, 4946, 4947, 4948, 4949, 4950
 4951, 4952, 4953, 4954, 4955, 4956, 4957, 4958, 4959, 4960, 4961, 4962, 4963, 4964, 5181, 5182
 5183, 5184, 5185, 5186, 5187, 5188, 5291, 5292
*Nset, nset=Set_RP_Base_1
 1,
*Nset, nset=Set_RP_Joist_End_1
 2,
*Nset, nset=Set_RP_swinglink_top
 3,
*Nset, nset=Stud_Bottom_Edge_1, instance=Stud_1
  18,  19,  21,  22,  23,  24, 309, 425, 426, 427, 428, 429, 430, 431, 489, 490
 491, 492, 493, 494, 495, 496, 497, 498, 499, 500, 501, 502, 560, 561, 562, 563
 564, 565, 566, 624
*Nset, nset=Stud_Bottom_Edge_1, instance=Stud_2
  18,  19,  21,  22,  23,  24, 309, 425, 426, 427, 428, 429, 430, 431, 489, 490
 491, 492, 493, 494, 495, 496, 497, 498, 499, 500, 501, 502, 560, 561, 562, 563
 564, 565, 566, 624
*Elset, elset=Stud_Bottom_Edge_1, instance=Stud_1
  988,  989, 1448, 1449, 1450, 1451, 1452, 1453, 1454, 1455, 2311, 2312, 2313, 2314, 2315, 2316
 2317, 2318, 2319, 2320, 2321, 2322, 2323, 2324, 2325, 2782, 2783, 2784, 2785, 2786, 2787, 2788
 2789, 2904, 2905
*Elset, elset=Stud_Bottom_Edge_1, instance=Stud_2
  988,  989, 1448, 1449, 1450, 1451, 1452, 1453, 1454, 1455, 2311, 2312, 2313, 2314, 2315, 2316
 2317, 2318, 2319, 2320, 2321, 2322, 2323, 2324, 2325, 2782, 2783, 2784, 2785, 2786, 2787, 2788
 2789, 2904, 2905
*Nset, nset=Wire_Swing_Link
 2, 3
*Elset, elset=Wire_Swing_Link
 1,
*Elset, elset=_Surf_Stud_Flanges_SPOS, internal, instance=Stud_1, generate
  49,  240,    1
*Elset, elset=_Surf_Stud_Flanges_SPOS, internal, instance=Stud_2, generate
 601,  792,    1
*Surface, type=ELEMENT, name=Surf_Stud_Flanges
_Surf_Stud_Flanges_SPOS, SPOS
*Surface, type=NODE, name=Joist_1_Set_Wheel_Edge_CNS_, internal
Joist_1.Set_Wheel_Edge, 1.
*Surface, type=NODE, name=Joist_2_Set_Wheel_Edge_CNS_, internal
Joist_2.Set_Wheel_Edge, 1.
*Surface, type=NODE, name=Stud_Bottom_Edge_1_CNS_, internal
Stud_Bottom_Edge_1, 1.
*Surface, type=NODE, name=Joist_Top_Edge_1_CNS_, internal
Joist_Top_Edge_1, 1.
*Surface, type=NODE, name=Gear_1_Set_Bottom_Edge_CNS_, internal
Gear_1.Set_Bottom_Edge, 1.
*Surface, type=NODE, name=Gear_2_Set_Bottom_Edge_CNS_, internal
Gear_2.Set_Bottom_Edge, 1.
*Orientation, name=Datum_csys_Swing_Link
          0.,           1.,           0.,          -1.,           0.,           0.
1, 0.
*Orientation, name=Datum_csys_Glob
          1.,           0.,           0.,           0.,           1.,           0.
1, 0.
*Orientation, name=Datum_csys_Facetrack
          1.,           0.,           0.,           0.,           1.,           0.
1, 0.
** Constraint: Coupling_Base_1
*Coupling, constraint name=Coupling_Base_1, ref node=Set_RP_Base_1, surface=Stud_Bottom_Edge_1_CNS_
*Kinematic
** Constraint: Joist_End_1
*Coupling, constraint name=Joist_End_1, ref node=Set_RP_Joist_End_1, surface=Joist_Top_Edge_1_CNS_
*Kinematic
** Constraint: Tie_Gear_1
*Tie, name=Tie_Gear_1, adjust=yes
Gear_1_Set_Bottom_Edge_CNS_, Stud_1.Surf_Middle
** Constraint: Tie_Gear_2
*Tie, name=Tie_Gear_2, adjust=yes
Gear_2_Set_Bottom_Edge_CNS_, Stud_2.Surf_Middle
*Elset, elset=__Int_KW_1_msm_2_SPOS, internal, instance=Gear_1, generate
 361,  480,    1
*Surface, type=ELEMENT, name=_Int_KW_1_msm_2, internal
__Int_KW_1_msm_2_SPOS, SPOS
*Elset, elset=__Int_KW_1_msm_4_SPOS, internal, instance=Gear_1, generate
 1351,  1470,     1
*Surface, type=ELEMENT, name=_Int_KW_1_msm_4, internal
__Int_KW_1_msm_4_SPOS, SPOS
*Elset, elset=__Int_KW_1_msm_6_SPOS, internal, instance=Gear_1, generate
 1831,  2010,     1
*Surface, type=ELEMENT, name=_Int_KW_1_msm_6, internal
__Int_KW_1_msm_6_SPOS, SPOS
*Elset, elset=__Int_KW_1_msm_8_SPOS, internal, instance=Gear_1, generate
 3151,  3330,     1
*Surface, type=ELEMENT, name=_Int_KW_1_msm_8, internal
__Int_KW_1_msm_8_SPOS, SPOS
*Elset, elset=__Int_KW_1_msm_10_SPOS, internal, instance=Gear_1, generate
 3691,  3810,     1
*Surface, type=ELEMENT, name=_Int_KW_1_msm_10, internal
__Int_KW_1_msm_10_SPOS, SPOS
*Elset, elset=__Int_KW_1_msm_12_SPOS, internal, instance=Gear_1, generate
 4681,  4800,     1
*Surface, type=ELEMENT, name=_Int_KW_1_msm_12, internal
__Int_KW_1_msm_12_SPOS, SPOS
*Elset, elset=__Int_KW_1_msm_14_SPOS, internal, instance=Gear_1, generate
 5161,  5340,     1
*Surface, type=ELEMENT, name=_Int_KW_1_msm_14, internal
__Int_KW_1_msm_14_SPOS, SPOS
*Elset, elset=__Int_KW_1_msm_16_SPOS, internal, instance=Gear_1, generate
 6481,  6660,     1
*Surface, type=ELEMENT, name=_Int_KW_1_msm_16, internal
__Int_KW_1_msm_16_SPOS, SPOS
*Elset, elset=__Int_KW_1_msm_18_SPOS, internal, instance=Gear_1, generate
 7021,  7140,     1
*Surface, type=ELEMENT, name=_Int_KW_1_msm_18, internal
__Int_KW_1_msm_18_SPOS, SPOS
*Elset, elset=__Int_KW_1_msm_20_SPOS, internal, instance=Gear_1, generate
 8011,  8130,     1
*Surface, type=ELEMENT, name=_Int_KW_1_msm_20, internal
__Int_KW_1_msm_20_SPOS, SPOS
*Elset, elset=__Int_KW_1_msm_22_SPOS, internal, instance=Gear_1, generate
 8491,  8670,     1
*Surface, type=ELEMENT, name=_Int_KW_1_msm_22, internal
__Int_KW_1_msm_22_SPOS, SPOS
*Elset, elset=__Int_KW_1_msm_24_SPOS, internal, instance=Gear_1, generate
 9811,  9990,     1
*Surface, type=ELEMENT, name=_Int_KW_1_msm_24, internal
__Int_KW_1_msm_24_SPOS, SPOS
*Elset, elset=__Int_KW_1_msm_26_SPOS, internal, instance=Gear_1, generate
 10351,  10470,      1
*Surface, type=ELEMENT, name=_Int_KW_1_msm_26, internal
__Int_KW_1_msm_26_SPOS, SPOS
*Elset, elset=__Int_KW_1_msm_28_SPOS, internal, instance=Gear_1, generate
 11341,  11460,      1
*Surface, type=ELEMENT, name=_Int_KW_1_msm_28, internal
__Int_KW_1_msm_28_SPOS, SPOS
*Elset, elset=__Int_KW_1_msm_30_SPOS, internal, instance=Gear_1, generate
 11821,  12000,      1
*Surface, type=ELEMENT, name=_Int_KW_1_msm_30, internal
__Int_KW_1_msm_30_SPOS, SPOS
*Elset, elset=__Int_KW_1_msm_32_SPOS, internal, instance=Gear_1, generate
 13141,  13320,      1
*Surface, type=ELEMENT, name=_Int_KW_1_msm_32, internal
__Int_KW_1_msm_32_SPOS, SPOS
*Elset, elset=__Int_KW_2_msm_2_SPOS, internal, instance=Gear_2, generate
 361,  480,    1
*Surface, type=ELEMENT, name=_Int_KW_2_msm_2, internal
__Int_KW_2_msm_2_SPOS, SPOS
*Elset, elset=__Int_KW_2_msm_4_SPOS, internal, instance=Gear_2, generate
 1351,  1470,     1
*Surface, type=ELEMENT, name=_Int_KW_2_msm_4, internal
__Int_KW_2_msm_4_SPOS, SPOS
*Elset, elset=__Int_KW_2_msm_6_SPOS, internal, instance=Gear_2, generate
 1831,  2010,     1
*Surface, type=ELEMENT, name=_Int_KW_2_msm_6, internal
__Int_KW_2_msm_6_SPOS, SPOS
*Elset, elset=__Int_KW_2_msm_8_SPOS, internal, instance=Gear_2, generate
 3151,  3330,     1
*Surface, type=ELEMENT, name=_Int_KW_2_msm_8, internal
__Int_KW_2_msm_8_SPOS, SPOS
*Elset, elset=__Int_KW_2_msm_10_SPOS, internal, instance=Gear_2, generate
 3691,  3810,     1
*Surface, type=ELEMENT, name=_Int_KW_2_msm_10, internal
__Int_KW_2_msm_10_SPOS, SPOS
*Elset, elset=__Int_KW_2_msm_12_SPOS, internal, instance=Gear_2, generate
 4681,  4800,     1
*Surface, type=ELEMENT, name=_Int_KW_2_msm_12, internal
__Int_KW_2_msm_12_SPOS, SPOS
*Elset, elset=__Int_KW_2_msm_14_SPOS, internal, instance=Gear_2, generate
 5161,  5340,     1
*Surface, type=ELEMENT, name=_Int_KW_2_msm_14, internal
__Int_KW_2_msm_14_SPOS, SPOS
*Elset, elset=__Int_KW_2_msm_16_SPOS, internal, instance=Gear_2, generate
 6481,  6660,     1
*Surface, type=ELEMENT, name=_Int_KW_2_msm_16, internal
__Int_KW_2_msm_16_SPOS, SPOS
*Elset, elset=__Int_KW_2_msm_18_SPOS, internal, instance=Gear_2, generate
 7021,  7140,     1
*Surface, type=ELEMENT, name=_Int_KW_2_msm_18, internal
__Int_KW_2_msm_18_SPOS, SPOS
*Elset, elset=__Int_KW_2_msm_20_SPOS, internal, instance=Gear_2, generate
 8011,  8130,     1
*Surface, type=ELEMENT, name=_Int_KW_2_msm_20, internal
__Int_KW_2_msm_20_SPOS, SPOS
*Elset, elset=__Int_KW_2_msm_22_SPOS, internal, instance=Gear_2, generate
 8491,  8670,     1
*Surface, type=ELEMENT, name=_Int_KW_2_msm_22, internal
__Int_KW_2_msm_22_SPOS, SPOS
*Elset, elset=__Int_KW_2_msm_24_SPOS, internal, instance=Gear_2, generate
 9811,  9990,     1
*Surface, type=ELEMENT, name=_Int_KW_2_msm_24, internal
__Int_KW_2_msm_24_SPOS, SPOS
*Elset, elset=__Int_KW_2_msm_26_SPOS, internal, instance=Gear_2, generate
 10351,  10470,      1
*Surface, type=ELEMENT, name=_Int_KW_2_msm_26, internal
__Int_KW_2_msm_26_SPOS, SPOS
*Elset, elset=__Int_KW_2_msm_28_SPOS, internal, instance=Gear_2, generate
 11341,  11460,      1
*Surface, type=ELEMENT, name=_Int_KW_2_msm_28, internal
__Int_KW_2_msm_28_SPOS, SPOS
*Elset, elset=__Int_KW_2_msm_30_SPOS, internal, instance=Gear_2, generate
 11821,  12000,      1
*Surface, type=ELEMENT, name=_Int_KW_2_msm_30, internal
__Int_KW_2_msm_30_SPOS, SPOS
*Elset, elset=__Int_KW_2_msm_32_SPOS, internal, instance=Gear_2, generate
 13141,  13320,      1
*Surface, type=ELEMENT, name=_Int_KW_2_msm_32, internal
__Int_KW_2_msm_32_SPOS, SPOS
** 
** POINT-BASED FASTENER: Fasteners_Stud_Facetrack_1
*Fastener Property, name=Fasteners_Stud_Facetrack_1
2.7
*Connector Section, elset=_Fasteners_Stud_Facetrack_1_pf_, behavior=ConnSect_Facetrack_Stud
Radial-Thrust,
Datum_csys_Glob,
*Fastener, interaction name=Fasteners_Stud_Facetrack_1, property=Fasteners_Stud_Facetrack_1, reference node set=AttachmentPoints_Facetrack_Stud_2, elset=_Fasteners_Stud_Facetrack_1_pf_, coupling=STRUCTURAL, attachment method=FACETOFACE, 
weighting method=UNIFORM, adjust orientation=NO, number of layers=1, orientation=Datum_csys_Facetrack

Stud_1.Surf_Flange_1, Facetrack_1.Surf_0
** 
** POINT-BASED FASTENER: Fasteners_Stud_Facetrack_2
*Fastener Property, name=Fasteners_Stud_Facetrack_2
2.7
*Connector Section, elset=_Fasteners_Stud_Facetrack_2_pf_, behavior=ConnSect_Facetrack_Stud
Radial-Thrust,
Datum_csys_Glob,
*Fastener, interaction name=Fasteners_Stud_Facetrack_2, property=Fasteners_Stud_Facetrack_2, reference node set=AttachmentPoints_Facetrack_Stud_2, elset=_Fasteners_Stud_Facetrack_2_pf_, coupling=STRUCTURAL, attachment method=FACETOFACE, 
weighting method=UNIFORM, adjust orientation=NO, number of layers=1, orientation=Datum_csys_Facetrack

Stud_2.Surf_Flange_2, Facetrack_1.Surf_1
*End Assembly
*Connector Behavior, name=ConnSect_Swing_Link
*Connector Elasticity, component=1
 217.636,
*Amplitude, name=Amp_1, definition=SMOOTH STEP
             0.,              0.,              1.,              1.
*Amplitude, name=Amp_Cyclic_Loads, definition=SMOOTH STEP
             0.,              0.,            0.25,             3.6,             0.5,              0.,            0.75,            -3.6
             1.,              0.,            1.25,             3.6,             1.5,              0.,            1.75,            -3.6
             2.,              0.,            2.25,             5.1,             2.5,              0.,            2.75,            -5.1
             3.,              0.,            3.25,             5.1,             3.5,              0.,            3.75,            -5.1
             4.,              0.,            4.25,            7.13,             4.5,              0.,            4.75,           -7.13
             5.,              0.,            5.25,            7.13,             5.5,              0.,            5.75,           -7.13
             6.,              0.,            6.25,            9.98,             6.5,              0.,            6.75,           -9.98
             7.,              0.,            7.25,            9.98,             7.5,              0.,            7.75,           -9.98
             8.,              0.,            8.25,           13.95,             8.5,              0.,            8.75,          -13.95
             9.,              0.,            9.25,           13.95,             9.5,              0.,            9.75,          -13.95
            10.,              0.,           10.25,            19.5,            10.5,              0.,           10.75,           -19.5
            11.,              0.,           11.25,            19.5,            11.5,              0.,           11.75,           -19.5
            12.,              0.,           12.25,            27.3,            12.5,              0.,           12.75,           -27.3
            13.,              0.,           13.25,            27.3,            13.5,              0.,           13.75,           -27.3
            14.,              0.,           14.25,           38.25,            14.5,              0.,           14.75,          -38.25
            15.,              0.,           15.25,           38.25,            15.5,              0.,           15.75,          -38.25
            16.,              0.,           16.25,           53.55,            16.5,              0.,           16.75,          -53.55
            17.,              0.,           17.25,           53.55,            17.5,              0.,           17.75,          -53.55
            18.,              0.,           18.25,             75.,            18.5,              0.,           18.75,            -75.
            19.,              0.,           19.25,             75.,            19.5,              0.,           19.75,            -75.
            20.,              0.,           20.25,           89.66,            20.5,              0.,           20.75,          -89.66
            21.,              0.,           21.25,           89.66,            21.5,              0.,           21.75,          -89.66
            22.,              0.
** 
** MATERIALS
** 
*Material, name=Mat_CFS_Facetrack
*Density
 7.85e-09,
*Elastic
210000., 0.33
*Plastic, hardening=COMBINED, number backstresses=1
  165.13,         0.
  200.19,   2.79e-06
  230.25,  1.031e-05
   250.3,  2.073e-05
  275.37,  4.463e-05
  305.47, 0.00010054
 350.687, 0.00029092
 365.783, 0.00040134
 401.089, 0.00080816
 441.664, 0.00167089
 483.264, 0.00447584
 501.308,  0.0102762
 523.592,  0.0238094
 553.175,  0.0496411
    594.,  0.0924816
*Material, name=Mat_CFS_Joist
*Density
 7.85e-09,
*Elastic
206486., 0.33
*Plastic, hardening=COMBINED, number backstresses=1
 180.859,          0.
 216.513, 1.49257e-05
 250.794, 4.32228e-05
 282.796, 7.23491e-05
 310.947, 9.92667e-05
 337.464, 0.000127139
  363.68, 0.000152197
 388.874, 0.000193237
 411.313, 0.000244784
 428.084, 0.000277835
 440.332,  0.00428554
 450.629,   0.0163549
 460.569,   0.0177997
 470.063,   0.0212219
 480.869,   0.0250334
 490.266,   0.0288936
 500.037,   0.0334542
 510.624,   0.0383959
 520.303,   0.0440849
 530.149,   0.0505497
** ... 8 like lines cut
*Material, name=Mat_CFS_Stud
*Density
 7.85e-09,
*Elastic
188001., 0.33
*Plastic, hardening=COMBINED, number backstresses=1
 132.063,          0.
 168.111, 7.67942e-06
 200.596, 1.43884e-05
  229.07, 2.50399e-05
 258.817, 5.06657e-05
 286.184, 0.000112781
 306.404, 0.000166827
 327.565, 0.000235869
 344.781,  0.00033777
 360.941, 0.000461995
 374.581, 0.000623634
 405.206,  0.00119472
 423.863,  0.00185135
   440.4,  0.00298523
 450.693,  0.00462405
 460.291,   0.0106317
 470.689,     0.01518
 480.402,   0.0190493
   490.7,   0.0228511
 500.425,   0.0270477
** ... 14 like lines cut
*Material, name=Mat_WAAM_n
*Density
 7.85e-09,
*Elastic
204000., 0.33
*Plastic, hardening=COMBINED, number backstresses=1
  386.73,      0.
 392.415, 0.00466
 398.136,  0.0093
 403.893,  0.0139
 409.686,  0.0185
 411.576,  0.0231
 430.308,  0.0322
 448.491,  0.0412
 465.488,  0.0502
 480.964,   0.059
 494.857,  0.0678
 507.286,  0.0765
 518.452,  0.0852
 528.575,  0.0938
 537.857,   0.102
 546.469,   0.111
 554.552,   0.119
 562.215,   0.127
 569.547,   0.136
 576.615,   0.144
** 
** INTERACTION PROPERTIES
** 
*Surface Interaction, name=IntProp_S
1.,
*Friction, slip tolerance=0.005
 0.2,
*Surface Behavior, penalty=NONLINEAR
5800., , , , , 
*Surface Smoothing, name=Int_KW_1
, _Int_KW_1_msm_2, CIRCUMFERENTIAL, -225., 740.044, -19.8339, -224., 740.044, -19.8339
, _Int_KW_1_msm_4, CIRCUMFERENTIAL, -225., 719.834, -40.0439, -224., 719.834, -40.0439
, _Int_KW_1_msm_6, CIRCUMFERENTIAL, -225., 718.789, -53.2, -224., 718.789, -53.2
, _Int_KW_1_msm_8, CIRCUMFERENTIAL, -225., 681.211, -53.2, -224., 681.211, -53.2
, _Int_KW_1_msm_10, CIRCUMFERENTIAL, -225., 680.166, -40.0439, -224., 680.166, -40.0439
, _Int_KW_1_msm_12, CIRCUMFERENTIAL, -225., 659.956, -19.8339, -224., 659.956, -19.8339
, _Int_KW_1_msm_14, CIRCUMFERENTIAL, -225., 646.8, -18.789, -224., 646.8, -18.789
, _Int_KW_1_msm_16, CIRCUMFERENTIAL, -225., 646.8, 18.789, -224., 646.8, 18.789
, _Int_KW_1_msm_18, CIRCUMFERENTIAL, -225., 659.956, 19.8339, -224., 659.956, 19.8339
, _Int_KW_1_msm_20, CIRCUMFERENTIAL, -225., 680.166, 40.0439, -224., 680.166, 40.0439
, _Int_KW_1_msm_22, CIRCUMFERENTIAL, -225., 681.211, 53.2, -224., 681.211, 53.2
, _Int_KW_1_msm_24, CIRCUMFERENTIAL, -225., 718.789, 53.2, -224., 718.789, 53.2
, _Int_KW_1_msm_26, CIRCUMFERENTIAL, -225., 719.834, 40.0439, -224., 719.834, 40.0439
, _Int_KW_1_msm_28, CIRCUMFERENTIAL, -225., 740.044, 19.8339, -224., 740.044, 19.8339
, _Int_KW_1_msm_30, CIRCUMFERENTIAL, -225., 753.2, 18.789, -224., 753.2, 18.789
, _Int_KW_1_msm_32, CIRCUMFERENTIAL, -225., 753.2, -18.789, -224., 753.2, -18.789
*Surface Smoothing, name=Int_KW_2
, _Int_KW_2_msm_2, CIRCUMFERENTIAL, 225., 659.956, -19.8339, 224., 659.956, -19.8339
, _Int_KW_2_msm_4, CIRCUMFERENTIAL, 225., 680.166, -40.0439, 224., 680.166, -40.0439
, _Int_KW_2_msm_6, CIRCUMFERENTIAL, 225., 681.211, -53.2, 224., 681.211, -53.2
, _Int_KW_2_msm_8, CIRCUMFERENTIAL, 225., 718.789, -53.2, 224., 718.789, -53.2
, _Int_KW_2_msm_10, CIRCUMFERENTIAL, 225., 719.834, -40.0439, 224., 719.834, -40.0439
, _Int_KW_2_msm_12, CIRCUMFERENTIAL, 225., 740.044, -19.8339, 224., 740.044, -19.8339
, _Int_KW_2_msm_14, CIRCUMFERENTIAL, 225., 753.2, -18.789, 224., 753.2, -18.789
, _Int_KW_2_msm_16, CIRCUMFERENTIAL, 225., 753.2, 18.789, 224., 753.2, 18.789
, _Int_KW_2_msm_18, CIRCUMFERENTIAL, 225., 740.044, 19.8339, 224., 740.044, 19.8339
, _Int_KW_2_msm_20, CIRCUMFERENTIAL, 225., 719.834, 40.0439, 224., 719.834, 40.0439
, _Int_KW_2_msm_22, CIRCUMFERENTIAL, 225., 718.789, 53.2, 224., 718.789, 53.2
, _Int_KW_2_msm_24, CIRCUMFERENTIAL, 225., 681.211, 53.2, 224., 681.211, 53.2
, _Int_KW_2_msm_26, CIRCUMFERENTIAL, 225., 680.166, 40.0439, 224., 680.166, 40.0439
, _Int_KW_2_msm_28, CIRCUMFERENTIAL, 225., 659.956, 19.8339, 224., 659.956, 19.8339
, _Int_KW_2_msm_30, CIRCUMFERENTIAL, 225., 646.8, 18.789, 224., 646.8, 18.789
, _Int_KW_2_msm_32, CIRCUMFERENTIAL, 225., 646.8, -18.789, 224., 646.8, -18.789
*Connector Behavior, name=ConnSect_Facetrack_Stud
*Connector Elasticity, component=1
 9741.91,
*Connector Plasticity, component=1
*Connector Hardening, definition=TABULAR
 4594.58,      0.,      0.
 6474.71,  3.0652,      0.
 4851.14, 6.24317,      0.
  0.0001,     22.,      0.
*Connector Elasticity, component=3
525.,
*Connector Failure, component=3, release=3
, , , 1837.
** ----------------------------------------------------------------
** 
** IMPERFECTIONS: Imperfection_1  
** 
*Imperfection, input=KSW42033_imperfection.inp
** 
** BOUNDARY CONDITIONS
** 
** Name: BC_Base_1 Type: Displacement/Rotation
*Boundary
Set_RP_Base_1, 1, 1
Set_RP_Base_1, 2, 2
Set_RP_Base_1, 3, 3
Set_RP_Base_1, 4, 4
Set_RP_Base_1, 5, 5
Set_RP_Base_1, 6, 6
** Name: BC_Joist_End Type: Displacement/Rotation
*Boundary
Set_RP_Joist_End_1, 1, 1
Set_RP_Joist_End_1, 5, 5
Set_RP_Joist_End_1, 6, 6
** Name: BC_Swing_Link Type: Displacement/Rotation
*Boundary
Set_RP_swinglink_top, 1, 1
Set_RP_swinglink_top, 2, 2
Set_RP_swinglink_top, 3, 3
Set_RP_swinglink_top, 5, 5
Set_RP_swinglink_top, 6, 6
** 
** INTERACTIONS
** 
** Interaction: Int_Facetrack_Stud
*Contact Pair, interaction=IntProp_S, type=SURFACE TO SURFACE
Surf_Stud_Flanges, Facetrack_1.Surf_Middle
** Interaction: Int_Joist_Stud_1
*Contact Pair, interaction=IntProp_S
Joist_1.Surf_0, Stud_1.Surf_Middle
** Interaction: Int_Joist_Stud_2
*Contact Pair, interaction=IntProp_S
Joist_2.Surf_0, Stud_2.Surf_Middle
** Interaction: Int_KW_1
*Contact Pair, interaction=IntProp_S, type=SURFACE TO SURFACE, geometric correction=Int_KW_1
Joist_1_Set_Wheel_Edge_CNS_, Gear_1.Surf_Outside
** Interaction: Int_KW_2
*Contact Pair, interaction=IntProp_S, type=SURFACE TO SURFACE, geometric correction=Int_KW_2
Joist_2_Set_Wheel_Edge_CNS_, Gear_2.Surf_Outside
** ----------------------------------------------------------------
** 
** STEP: Step_Applied_Gravity
** 
*Step, name=Step_Applied_Gravity, nlgeom=YES, inc=100000
*Dynamic,application=QUASI-STATIC,initial=NO
0.2,1.,1e-06
** 
** LOADS
** 
** Name: Load_Gravity   Type: Gravity
*Dload, amplitude=Amp_1
, GRAV, 9810., 0., -1., 0.
** 
** OUTPUT REQUESTS
** 
*Restart, write, frequency=0
** 
** FIELD OUTPUT: F-Output-1
** 
*Output, field, frequency=1
*Node Output
U, 
*Element Output, directions=YES
PEEQ, S
** 
** HISTORY OUTPUT: H_Output_Joist_End
** 
*Output, history, frequency=1
*Node Output, nset=Set_RP_swinglink_top
RF2, U2
*End Step
** ----------------------------------------------------------------
** 
** STEP: Step_Load
** 
*Step, name=Step_Load, nlgeom=YES, inc=100000
*Dynamic,application=QUASI-STATIC,initial=NO
0.15,22.,1e-06,0.2
** 
** BOUNDARY CONDITIONS
** 
** Name: BC_Swing_Link Type: Displacement/Rotation
*Boundary, amplitude=Amp_Cyclic_Loads
Set_RP_swinglink_top, 1, 1
Set_RP_swinglink_top, 2, 2, 1.
Set_RP_swinglink_top, 3, 3
Set_RP_swinglink_top, 5, 5
Set_RP_swinglink_top, 6, 6
** 
** OUTPUT REQUESTS
** 
*Restart, write, frequency=0
** 
** FIELD OUTPUT: F-Output-1
** 
*Output, field, frequency=1
*Node Output
U, 
*Element Output, directions=YES
PEEQ, S
** 
** HISTORY OUTPUT: H_Output_Joist_End
** 
*Output, history, frequency=1
*Node Output, nset=Set_RP_swinglink_top
RF2, U2
*End Step
